REMARK SMILES CN1CCN(c2cc(C(=O)Nc3cc4cc(-c5cnn(C)c5)ccc4cn3)ccn2)CC1
REMARK SMILES IDX 11 1 9 2 10 3 12 5 16 6 15 7 23 8 14 9 24 10 25 11 13 12
REMARK SMILES IDX 26 13 27 14 17 15 21 16 20 17 22 18 19 19 18 20 8 21 28 22
REMARK SMILES IDX 7 23 29 24 6 25 30 26 5 27 4 28 31 29 3 30 32 31 2 32 1 33
REMARK H PARENT 11 4
REMARK Flexibility Score: inf
ROOT
ATOM      1  N   UNL     1       0.082  -2.018  -0.698  1.00  0.00    -0.307 N 
ATOM      2  C   UNL     1      -0.713  -1.074  -0.093  1.00  0.00     0.257 C 
ATOM      3  O   UNL     1      -0.345  -0.012   0.394  1.00  0.00    -0.269 OA
ATOM      4  H   UNL     1      -0.337  -2.806  -1.170  1.00  0.00     0.171 HD
ENDROOT
BRANCH   1   5
ATOM      5  C   UNL     1       1.469  -2.011  -0.850  1.00  0.00     0.133 A 
ATOM      6  C   UNL     1       5.975  -0.285  -0.274  1.00  0.00    -0.015 A 
ATOM      7  C   UNL     1       4.594  -0.173  -0.051  1.00  0.00     0.017 A 
ATOM      8  C   UNL     1       6.454  -1.381  -1.003  1.00  0.00     0.009 A 
ATOM      9  C   UNL     1       3.693  -1.134  -0.547  1.00  0.00    -0.013 A 
ATOM     10  C   UNL     1       5.572  -2.345  -1.501  1.00  0.00     0.011 A 
ATOM     11  C   UNL     1       4.191  -2.227  -1.277  1.00  0.00     0.000 A 
ATOM     12  C   UNL     1       2.309  -1.034  -0.335  1.00  0.00     0.056 A 
ATOM     13  C   UNL     1       3.262  -3.154  -1.747  1.00  0.00     0.122 A 
ATOM     14  N   UNL     1       1.925  -3.071  -1.549  1.00  0.00    -0.238 NA
BRANCH   6  15
ATOM     15  C   UNL     1       6.882   0.719   0.255  1.00  0.00     0.020 A 
ATOM     16  C   UNL     1       9.850   2.769   0.300  1.00  0.00     0.173 C 
ATOM     17  N   UNL     1       8.605   2.065   0.486  1.00  0.00    -0.275 N 
ATOM     18  C   UNL     1       8.086   1.087  -0.313  1.00  0.00     0.117 A 
ATOM     19  N   UNL     1       7.827   2.365   1.541  1.00  0.00    -0.181 NA
ATOM     20  C   UNL     1       6.779   1.550   1.396  1.00  0.00     0.143 A 
ENDBRANCH   6  15
ENDBRANCH   1   5
BRANCH   2  21
ATOM     21  C   UNL     1      -2.165  -1.395  -0.068  1.00  0.00     0.045 A 
ATOM     22  C   UNL     1      -2.627  -2.697   0.083  1.00  0.00     0.034 A 
ATOM     23  C   UNL     1      -3.077  -0.342  -0.171  1.00  0.00     0.060 A 
ATOM     24  C   UNL     1      -3.992  -2.882   0.091  1.00  0.00     0.114 A 
ATOM     25  C   UNL     1      -4.443  -0.606  -0.138  1.00  0.00     0.129 A 
ATOM     26  N   UNL     1      -4.889  -1.878  -0.027  1.00  0.00    -0.239 NA
BRANCH  25  27
ATOM     27  N   UNL     1      -5.366   0.448  -0.267  1.00  0.00    -0.354 N 
ATOM     28  C   UNL     1      -6.761  -0.018  -0.420  1.00  0.00     0.133 C 
ATOM     29  C   UNL     1      -5.216   1.494   0.767  1.00  0.00     0.133 C 
ATOM     30  C   UNL     1      -7.717   1.178  -0.640  1.00  0.00     0.105 C 
ATOM     31  C   UNL     1      -6.219   2.651   0.529  1.00  0.00     0.105 C 
ATOM     32  N   UNL     1      -7.635   2.252   0.377  1.00  0.00    -0.303 NA
ATOM     33  C   UNL     1      -8.216   1.831   1.650  1.00  0.00     0.105 C 
ENDBRANCH  25  27
ENDBRANCH   2  21
TORSDOF 4
