REMARK SMILES Cc1nnc(NS(=O)(=O)c2ccc(N)cc2)s1
REMARK SMILES IDX 7 1 8 2 9 3 6 4 5 6 1 7 2 8 3 9 17 10 4 11 10 12 11 13 16 14
REMARK SMILES IDX 12 15 15 16 13 17 14 18
REMARK H PARENT 6 5 14 19 14 20
REMARK Flexibility Score: inf
ROOT
ATOM      1  S   UNL     1      -0.141  -1.311   0.438  1.00  0.00     0.263 S 
ATOM      2  O   UNL     1      -0.910  -0.888   1.587  1.00  0.00    -0.201 OA
ATOM      3  O   UNL     1       0.083  -2.708   0.137  1.00  0.00    -0.201 OA
ENDROOT
BRANCH   1   4
ATOM      4  N   UNL     1      -0.721  -0.599  -0.982  1.00  0.00    -0.253 N 
ATOM      5  H   UNL     1      -0.509  -1.250  -1.741  1.00  0.00     0.182 HD
BRANCH   4   6
ATOM      6  C   UNL     1      -2.170  -0.474  -0.944  1.00  0.00     0.219 A 
ATOM      7  C   UNL     1      -5.785   0.681  -0.505  1.00  0.00     0.081 C 
ATOM      8  C   UNL     1      -4.458   0.088  -0.801  1.00  0.00     0.116 A 
ATOM      9  N   UNL     1      -4.258  -1.000  -1.517  1.00  0.00    -0.142 NA
ATOM     10  S   UNL     1      -3.014   0.820  -0.218  1.00  0.00    -0.079 S 
ATOM     11  N   UNL     1      -2.916  -1.314  -1.619  1.00  0.00    -0.119 NA
ENDBRANCH   4   6
ENDBRANCH   1   4
BRANCH   1  12
ATOM     12  C   UNL     1       1.447  -0.521   0.561  1.00  0.00     0.088 A 
ATOM     13  C   UNL     1       2.607  -1.218   0.223  1.00  0.00     0.024 A 
ATOM     14  C   UNL     1       1.517   0.801   1.006  1.00  0.00     0.024 A 
ATOM     15  C   UNL     1       3.846  -0.580   0.331  1.00  0.00     0.027 A 
ATOM     16  C   UNL     1       2.762   1.426   1.109  1.00  0.00     0.027 A 
ATOM     17  C   UNL     1       3.939   0.728   0.819  1.00  0.00     0.031 A 
BRANCH  17  18
ATOM     18  N   UNL     1       5.168   1.396   0.807  1.00  0.00    -0.399 N 
ATOM     19  H   UNL     1       5.215   2.186   1.444  1.00  0.00     0.156 HD
ATOM     20  H   UNL     1       5.972   0.783   0.898  1.00  0.00     0.156 HD
ENDBRANCH  17  18
ENDBRANCH   1  12
TORSDOF 4
