REMARK SMILES Oc1cc2c(cc1O)[C@@H]1c3ccc(O)c(O)c3OC[C@]1(O)C2
REMARK SMILES IDX 9 1 5 2 6 3 7 4 2 5 3 6 4 7 22 8 20 9 19 10 18 11 17 12
REMARK SMILES IDX 10 13 11 14 12 15 13 16 15 17 21 18 8 20 16 22 1 24 14 26
REMARK H PARENT 21 19 8 21 16 23 1 25 14 27
REMARK Flexibility Score: inf
ROOT
ATOM      1  C   UNL     1      -0.157  -0.684   0.991  1.00  0.00     0.089 C 
ATOM      2  C   UNL     1      -1.334   0.131   0.494  1.00  0.00    -0.030 A 
ATOM      3  C   UNL     1      -1.863   1.297   1.037  1.00  0.00     0.055 A 
ATOM      4  C   UNL     1      -2.955   1.878   0.396  1.00  0.00     0.157 A 
ATOM      5  C   UNL     1      -3.504   1.302  -0.757  1.00  0.00     0.157 A 
ATOM      6  C   UNL     1      -2.988   0.131  -1.294  1.00  0.00     0.054 A 
ATOM      7  C   UNL     1      -1.909  -0.451  -0.646  1.00  0.00    -0.037 A 
ATOM      8  C   UNL     1      -1.195  -1.709  -1.032  1.00  0.00     0.075 C 
ATOM      9  C   UNL     1      -0.407  -2.039   0.264  1.00  0.00     0.114 C 
ATOM     10  C   UNL     1       0.919  -2.734  -0.026  1.00  0.00     0.266 C 
ATOM     11  O   UNL     1       1.791  -1.929  -0.810  1.00  0.00    -0.486 OA
ATOM     12  C   UNL     1       2.078  -0.726  -0.220  1.00  0.00     0.168 A 
ATOM     13  C   UNL     1       1.197  -0.085   0.665  1.00  0.00     0.009 A 
ATOM     14  C   UNL     1       1.600   1.129   1.256  1.00  0.00     0.012 A 
ATOM     15  C   UNL     1       2.828   1.718   0.936  1.00  0.00     0.051 A 
ATOM     16  C   UNL     1       3.663   1.089   0.025  1.00  0.00     0.161 A 
ATOM     17  C   UNL     1       3.294  -0.125  -0.550  1.00  0.00     0.200 A 
ENDROOT
BRANCH   9  18
ATOM     18  O   UNL     1      -1.195  -2.895   1.117  1.00  0.00    -0.385 OA
ATOM     19  H   UNL     1      -1.519  -3.640   0.581  1.00  0.00     0.211 HD
ENDBRANCH   9  18
BRANCH   4  20
ATOM     20  O   UNL     1      -3.536   3.026   0.863  1.00  0.00    -0.504 OA
ATOM     21  H   UNL     1      -3.068   3.291   1.674  1.00  0.00     0.293 HD
ENDBRANCH   4  20
BRANCH  17  22
ATOM     22  O   UNL     1       4.155  -0.726  -1.430  1.00  0.00    -0.502 OA
ATOM     23  H   UNL     1       4.913  -0.114  -1.492  1.00  0.00     0.293 HD
ENDBRANCH  17  22
BRANCH   5  24
ATOM     24  O   UNL     1      -4.572   1.898  -1.366  1.00  0.00    -0.504 OA
ATOM     25  H   UNL     1      -4.754   2.687  -0.819  1.00  0.00     0.293 HD
ENDBRANCH   5  24
BRANCH  16  26
ATOM     26  O   UNL     1       4.872   1.622  -0.333  1.00  0.00    -0.504 OA
ATOM     27  H   UNL     1       4.979   2.471   0.130  1.00  0.00     0.293 HD
ENDBRANCH  16  26
TORSDOF 5
