REMARK SMILES Cc1nccn1CC1CCc2c(c3ccccc3n2C)C1=O
REMARK SMILES IDX 7 1 6 2 1 3 2 4 3 5 4 6 5 7 8 8 9 9 21 10 10 11 12 12 22 13
REMARK SMILES IDX 11 14 13 15 19 16 14 17 18 18 20 19 15 20 17 21 16 22
REMARK H PARENT
REMARK Flexibility Score: inf
ROOT
ATOM      1  C   UNL     1      -2.858   0.298   1.058  1.00  0.00     0.135 C 
ENDROOT
BRANCH   1   2
ATOM      2  N   UNL     1      -3.407   0.104  -0.272  1.00  0.00    -0.334 N 
ATOM      3  C   UNL     1      -2.840  -2.346  -0.635  1.00  0.00     0.087 C 
ATOM      4  C   UNL     1      -3.422  -1.041  -1.037  1.00  0.00     0.105 A 
ATOM      5  N   UNL     1      -4.031  -0.818  -2.187  1.00  0.00    -0.242 NA
ATOM      6  C   UNL     1      -4.457   0.480  -2.149  1.00  0.00     0.131 A 
ATOM      7  C   UNL     1      -4.097   1.069  -0.964  1.00  0.00     0.107 A 
ENDBRANCH   1   2
BRANCH   1   8
ATOM      8  C   UNL     1      -1.390   0.757   1.127  1.00  0.00     0.081 C 
ATOM      9  C   UNL     1      -1.034   1.856   0.098  1.00  0.00     0.020 C 
ATOM     10  C   UNL     1      -0.425  -0.436   1.070  1.00  0.00     0.170 C 
ATOM     11  C   UNL     1       0.425   2.322   0.216  1.00  0.00     0.055 C 
ATOM     12  C   UNL     1       0.929  -0.149   0.610  1.00  0.00     0.047 A 
ATOM     13  O   UNL     1      -0.752  -1.547   1.479  1.00  0.00    -0.294 OA
ATOM     14  C   UNL     1       1.310   1.125   0.229  1.00  0.00     0.029 A 
ATOM     15  C   UNL     1       2.057  -1.000   0.454  1.00  0.00     0.011 A 
ATOM     16  N   UNL     1       2.635   1.087  -0.126  1.00  0.00    -0.347 N 
ATOM     17  C   UNL     1       2.283  -2.376   0.666  1.00  0.00     0.011 A 
ATOM     18  C   UNL     1       3.111  -0.208  -0.016  1.00  0.00     0.049 A 
ATOM     19  C   UNL     1       3.426   2.218  -0.559  1.00  0.00     0.150 C 
ATOM     20  C   UNL     1       3.542  -2.922   0.399  1.00  0.00     0.001 A 
ATOM     21  C   UNL     1       4.378  -0.751  -0.290  1.00  0.00     0.027 A 
ATOM     22  C   UNL     1       4.573  -2.118  -0.074  1.00  0.00     0.002 A 
ENDBRANCH   1   8
TORSDOF 2
