REMARK SMILES Nc1cccc2c1CN(C1CCC(=O)NC1=O)C2=O
REMARK SMILES IDX 2 1 3 2 4 3 5 4 6 5 7 6 8 7 9 8 18 9 19 10 1 11 10 14 11 15
REMARK SMILES IDX 16 16 12 17 15 18 17 19 13 20 14 22
REMARK H PARENT 1 12 1 13 15 21
REMARK Flexibility Score: inf
ROOT
ATOM      1  C   UNL     1      -3.057  -0.897  -0.769  1.00  0.00     0.037 A 
ATOM      2  C   UNL     1      -4.266  -0.191  -0.657  1.00  0.00     0.026 A 
ATOM      3  C   UNL     1      -4.348   1.044   0.016  1.00  0.00     0.003 A 
ATOM      4  C   UNL     1      -3.207   1.627   0.560  1.00  0.00     0.014 A 
ATOM      5  C   UNL     1      -2.016   0.949   0.392  1.00  0.00     0.047 A 
ATOM      6  C   UNL     1      -1.922  -0.276  -0.273  1.00  0.00     0.007 A 
ATOM      7  C   UNL     1      -0.491  -0.695  -0.342  1.00  0.00     0.159 C 
ATOM      8  N   UNL     1       0.188   0.323   0.451  1.00  0.00    -0.322 N 
ATOM      9  C   UNL     1      -0.671   1.348   0.818  1.00  0.00     0.255 C 
ATOM     10  O   UNL     1      -0.394   2.386   1.388  1.00  0.00    -0.269 OA
ENDROOT
BRANCH   1  11
ATOM     11  N   UNL     1      -2.991  -2.055  -1.544  1.00  0.00    -0.398 N 
ATOM     12  H   UNL     1      -2.226  -2.682  -1.319  1.00  0.00     0.156 HD
ATOM     13  H   UNL     1      -3.875  -2.549  -1.626  1.00  0.00     0.156 HD
ENDBRANCH   1  11
BRANCH   8  14
ATOM     14  C   UNL     1       1.636   0.480   0.490  1.00  0.00     0.176 C 
ATOM     15  C   UNL     1       2.349  -0.799   0.919  1.00  0.00     0.045 C 
ATOM     16  C   UNL     1       2.212   0.947  -0.858  1.00  0.00     0.249 C 
ATOM     17  C   UNL     1       3.843  -0.532   1.028  1.00  0.00     0.103 C 
ATOM     18  N   UNL     1       3.582   0.866  -0.970  1.00  0.00    -0.295 N 
ATOM     19  O   UNL     1       1.539   1.361  -1.798  1.00  0.00    -0.272 OA
ATOM     20  C   UNL     1       4.395   0.013  -0.268  1.00  0.00     0.226 C 
ATOM     21  H   UNL     1       3.950   1.159  -1.866  1.00  0.00     0.172 HD
ATOM     22  O   UNL     1       5.518  -0.271  -0.674  1.00  0.00    -0.275 OA
ENDBRANCH   8  14
TORSDOF 2
