REMARK SMILES CN1CCN(CC/C=C2/c3ccccc3Sc3ccc(S(=O)(=O)N(C)C)cc32)CC1
REMARK SMILES IDX 8 1 9 2 10 3 11 4 12 5 13 6 14 7 15 8 16 9 17 10 18 11 19 12
REMARK SMILES IDX 20 13 27 14 28 15 7 16 6 17 5 18 1 19 2 20 3 21 30 22 4 23
REMARK SMILES IDX 29 24 21 25 22 26 23 27 24 28 25 29 26 30
REMARK H PARENT
REMARK Flexibility Score: inf
ROOT
ATOM      1  C   UNL     1      -0.360   1.187   0.823  1.00  0.00    -0.016 C 
ATOM      2  C   UNL     1       0.778   1.621   0.234  1.00  0.00    -0.013 C 
ATOM      3  C   UNL     1       0.681   2.828  -0.634  1.00  0.00    -0.004 A 
ATOM      4  C   UNL     1      -0.316   2.964  -1.614  1.00  0.00     0.010 A 
ATOM      5  C   UNL     1      -0.375   4.106  -2.414  1.00  0.00     0.001 A 
ATOM      6  C   UNL     1       0.565   5.121  -2.251  1.00  0.00     0.001 A 
ATOM      7  C   UNL     1       1.573   4.991  -1.295  1.00  0.00     0.016 A 
ATOM      8  C   UNL     1       1.646   3.846  -0.492  1.00  0.00     0.020 A 
ATOM      9  S   UNL     1       2.979   3.729   0.704  1.00  0.00    -0.089 SA
ATOM     10  C   UNL     1       3.184   1.951   0.805  1.00  0.00     0.020 A 
ATOM     11  C   UNL     1       4.454   1.450   1.125  1.00  0.00     0.017 A 
ATOM     12  C   UNL     1       4.684   0.074   1.153  1.00  0.00     0.023 A 
ATOM     13  C   UNL     1       3.645  -0.800   0.827  1.00  0.00     0.083 A 
ATOM     14  C   UNL     1       2.368  -0.313   0.535  1.00  0.00     0.031 A 
ATOM     15  C   UNL     1       2.117   1.065   0.556  1.00  0.00    -0.003 A 
ENDROOT
BRANCH   1  16
ATOM     16  C   UNL     1      -0.561   0.125   1.878  1.00  0.00     0.043 C 
BRANCH  16  17
ATOM     17  C   UNL     1      -1.349  -1.099   1.369  1.00  0.00     0.088 C 
BRANCH  17  18
ATOM     18  N   UNL     1      -2.684  -0.791   0.819  1.00  0.00    -0.300 NA
ATOM     19  C   UNL     1      -6.924  -1.031   0.102  1.00  0.00     0.105 C 
ATOM     20  N   UNL     1      -5.604  -1.306   0.661  1.00  0.00    -0.304 NA
ATOM     21  C   UNL     1      -5.053  -0.107   1.320  1.00  0.00     0.099 C 
ATOM     22  C   UNL     1      -4.670  -1.751  -0.391  1.00  0.00     0.099 C 
ATOM     23  C   UNL     1      -3.625  -0.341   1.868  1.00  0.00     0.100 C 
ATOM     24  C   UNL     1      -3.247  -1.991   0.161  1.00  0.00     0.100 C 
ENDBRANCH  17  18
ENDBRANCH  16  17
ENDBRANCH   1  16
BRANCH  13  25
ATOM     25  S   UNL     1       3.921  -2.560   0.860  1.00  0.00     0.242 S 
ATOM     26  O   UNL     1       2.644  -3.187   1.128  1.00  0.00    -0.207 OA
ATOM     27  O   UNL     1       5.064  -2.801   1.714  1.00  0.00    -0.207 OA
BRANCH  25  28
ATOM     28  N   UNL     1       4.365  -2.910  -0.744  1.00  0.00    -0.204 NA
ATOM     29  C   UNL     1       5.678  -2.418  -1.195  1.00  0.00     0.124 C 
ATOM     30  C   UNL     1       3.317  -2.793  -1.772  1.00  0.00     0.124 C 
ENDBRANCH  25  28
ENDBRANCH  13  25
TORSDOF 5
