REMARK SMILES CNc1ccc(-c2nc3ccc(O)cc3s2)cc1F
REMARK SMILES IDX 7 1 8 2 9 3 10 4 11 5 12 6 14 7 15 8 16 9 6 10 3 11 4 12
REMARK SMILES IDX 18 13 5 14 17 15 19 16 2 17 1 18 13 20
REMARK H PARENT 2 19 13 21
REMARK Flexibility Score: inf
ROOT
ATOM      1  C   UNL     1       0.673   0.290   0.063  1.00  0.00     0.124 A 
ATOM      2  N   UNL     1       1.418  -0.760   0.355  1.00  0.00    -0.236 NA
ATOM      3  C   UNL     1       2.756  -0.414   0.404  1.00  0.00     0.082 A 
ATOM      4  C   UNL     1       3.826  -1.288   0.688  1.00  0.00     0.034 A 
ATOM      5  C   UNL     1       5.138  -0.803   0.706  1.00  0.00     0.048 A 
ATOM      6  C   UNL     1       5.380   0.538   0.443  1.00  0.00     0.117 A 
ATOM      7  C   UNL     1       4.346   1.429   0.159  1.00  0.00     0.067 A 
ATOM      8  C   UNL     1       3.035   0.927   0.145  1.00  0.00     0.059 A 
ATOM      9  S   UNL     1       1.559   1.750  -0.165  1.00  0.00    -0.114 S 
ENDROOT
BRANCH   1  10
ATOM     10  C   UNL     1      -0.800   0.236  -0.059  1.00  0.00     0.014 A 
ATOM     11  C   UNL     1      -3.640  -0.017  -0.286  1.00  0.00     0.070 A 
ATOM     12  C   UNL     1      -2.852  -1.104   0.093  1.00  0.00     0.029 A 
ATOM     13  C   UNL     1      -2.979   1.203  -0.502  1.00  0.00     0.146 A 
ATOM     14  C   UNL     1      -1.457  -0.982   0.192  1.00  0.00     0.013 A 
ATOM     15  C   UNL     1      -1.592   1.336  -0.406  1.00  0.00     0.052 A 
ATOM     16  F   UNL     1      -3.699   2.287  -0.839  1.00  0.00    -0.205 F 
BRANCH  11  17
ATOM     17  N   UNL     1      -5.042  -0.058  -0.331  1.00  0.00    -0.386 N 
ATOM     18  C   UNL     1      -5.695  -1.311  -0.659  1.00  0.00     0.139 C 
ATOM     19  H   UNL     1      -5.402   0.734  -0.865  1.00  0.00     0.160 HD
ENDBRANCH  11  17
ENDBRANCH   1  10
BRANCH   6  20
ATOM     20  O   UNL     1       6.649   1.041   0.453  1.00  0.00    -0.508 OA
ATOM     21  H   UNL     1       7.270   0.324   0.665  1.00  0.00     0.293 HD
ENDBRANCH   6  20
TORSDOF 3
