REMARK SMILES COc1ccc2c(OCc3nnc4ccc(-c5ccccc5)nn34)ccnc2c1
REMARK SMILES IDX 9 1 8 2 7 3 3 4 29 5 4 6 28 7 5 8 27 9 6 10 26 11 25 12 2 13
REMARK SMILES IDX 1 14 10 15 11 16 24 17 12 18 13 19 23 20 14 21 16 22 15 23
REMARK SMILES IDX 17 24 18 25 22 26 19 27 21 28 20 29
REMARK H PARENT
REMARK Flexibility Score: inf
ROOT
ATOM      1  C   UNL     1      -0.021  -1.398   0.916  1.00  0.00     0.308 C 
ENDROOT
BRANCH   1   2
ATOM      2  O   UNL     1       1.184  -0.630   0.897  1.00  0.00    -0.485 OA
BRANCH   2   3
ATOM      3  C   UNL     1       2.146  -0.962  -0.026  1.00  0.00     0.130 A 
ATOM      4  C   UNL     1       5.802   1.161   0.108  1.00  0.00     0.121 A 
ATOM      5  C   UNL     1       5.562   0.172  -0.850  1.00  0.00     0.075 A 
ATOM      6  C   UNL     1       4.816   1.450   1.045  1.00  0.00     0.047 A 
ATOM      7  C   UNL     1       4.362  -0.531  -0.895  1.00  0.00     0.078 A 
ATOM      8  C   UNL     1       3.603   0.762   1.019  1.00  0.00     0.018 A 
ATOM      9  N   UNL     1       4.206  -1.471  -1.842  1.00  0.00    -0.256 NA
ATOM     10  C   UNL     1       3.357  -0.234   0.049  1.00  0.00     0.043 A 
ATOM     11  C   UNL     1       3.042  -2.150  -1.878  1.00  0.00     0.115 A 
ATOM     12  C   UNL     1       1.991  -1.937  -1.006  1.00  0.00     0.067 A 
BRANCH   4  13
ATOM     13  O   UNL     1       6.943   1.907   0.229  1.00  0.00    -0.497 OA
ATOM     14  C   UNL     1       7.989   1.633  -0.695  1.00  0.00     0.278 C 
ENDBRANCH   4  13
ENDBRANCH   2   3
ENDBRANCH   1   2
BRANCH   1  15
ATOM     15  C   UNL     1      -0.842  -0.878   2.036  1.00  0.00     0.192 A 
ATOM     16  N   UNL     1      -0.513  -0.809   3.316  1.00  0.00    -0.129 NA
ATOM     17  N   UNL     1      -2.126  -0.417   1.871  1.00  0.00    -0.193 N 
ATOM     18  N   UNL     1      -1.582  -0.276   4.003  1.00  0.00    -0.129 NA
ATOM     19  C   UNL     1      -2.541  -0.047   3.133  1.00  0.00     0.178 A 
ATOM     20  N   UNL     1      -2.850  -0.361   0.710  1.00  0.00    -0.165 NA
ATOM     21  C   UNL     1      -3.841   0.483   3.262  1.00  0.00     0.053 C 
ATOM     22  C   UNL     1      -4.057   0.104   0.870  1.00  0.00     0.091 C 
ATOM     23  C   UNL     1      -4.621   0.577   2.175  1.00  0.00     0.035 C 
BRANCH  22  24
ATOM     24  C   UNL     1      -4.956   0.205  -0.314  1.00  0.00     0.002 A 
ATOM     25  C   UNL     1      -4.406   0.582  -1.545  1.00  0.00     0.010 A 
ATOM     26  C   UNL     1      -6.322  -0.095  -0.225  1.00  0.00     0.010 A 
ATOM     27  C   UNL     1      -5.220   0.677  -2.675  1.00  0.00     0.001 A 
ATOM     28  C   UNL     1      -7.133   0.000  -1.359  1.00  0.00     0.001 A 
ATOM     29  C   UNL     1      -6.582   0.388  -2.582  1.00  0.00     0.000 A 
ENDBRANCH  22  24
ENDBRANCH   1  15
TORSDOF 5
