REMARK SMILES COc1ccc2[n-]c([S@@+]([O-])Cc3ncc(C)c(OC)c3C)nc2c1
REMARK SMILES IDX 11 1 9 2 10 3 8 4 3 5 4 6 24 7 5 8 23 9 6 10 22 11 7 12 2 13
REMARK SMILES IDX 1 14 12 15 13 16 20 17 14 18 17 19 21 20 15 21 16 22 18 23
REMARK SMILES IDX 19 24
REMARK H PARENT
REMARK Flexibility Score: inf
ROOT
ATOM      1  C   UNL     1      -0.881  -1.949   1.448  1.00  0.00     0.337 C 
ENDROOT
BRANCH   1   2
ATOM      2  S   UNL     1      -0.089  -2.987   0.189  1.00  0.00    -0.015 S 
ATOM      3  O   UNL     1       0.361  -4.424   0.919  1.00  0.00    -0.612 OA
BRANCH   2   4
ATOM      4  C   UNL     1       1.387  -1.955  -0.034  1.00  0.00     0.140 A 
ATOM      5  C   UNL     1       5.002   0.754   0.022  1.00  0.00     0.119 A 
ATOM      6  C   UNL     1       4.760   0.731  -1.363  1.00  0.00     0.046 A 
ATOM      7  C   UNL     1       4.173   0.057   0.908  1.00  0.00     0.050 A 
ATOM      8  C   UNL     1       3.693   0.007  -1.907  1.00  0.00     0.008 A 
ATOM      9  C   UNL     1       3.106  -0.669   0.372  1.00  0.00    -0.031 A 
ATOM     10  C   UNL     1       2.870  -0.697  -1.024  1.00  0.00    -0.034 A 
ATOM     11  N   UNL     1       2.140  -1.423   0.955  1.00  0.00    -0.393 NA
ATOM     12  N   UNL     1       1.779  -1.472  -1.235  1.00  0.00    -0.393 NA
BRANCH   5  13
ATOM     13  O   UNL     1       6.031   1.431   0.634  1.00  0.00    -0.497 OA
ATOM     14  C   UNL     1       6.935   2.130  -0.212  1.00  0.00     0.278 C 
ENDBRANCH   5  13
ENDBRANCH   2   4
ENDBRANCH   1   2
BRANCH   1  15
ATOM     15  C   UNL     1      -2.205  -1.390   0.975  1.00  0.00     0.096 A 
ATOM     16  N   UNL     1      -3.302  -2.077   1.406  1.00  0.00    -0.255 NA
ATOM     17  C   UNL     1      -2.315  -0.245   0.171  1.00  0.00     0.018 A 
ATOM     18  C   UNL     1      -4.520  -1.667   1.002  1.00  0.00     0.118 A 
ATOM     19  C   UNL     1      -3.614   0.166  -0.185  1.00  0.00     0.128 A 
ATOM     20  C   UNL     1      -1.105   0.475  -0.359  1.00  0.00     0.050 C 
ATOM     21  C   UNL     1      -4.741  -0.568   0.192  1.00  0.00     0.010 A 
ATOM     22  C   UNL     1      -6.132  -0.190  -0.206  1.00  0.00     0.050 C 
BRANCH  19  23
ATOM     23  O   UNL     1      -3.790   1.275  -0.981  1.00  0.00    -0.496 OA
ATOM     24  C   UNL     1      -3.922   2.446  -0.171  1.00  0.00     0.278 C 
ENDBRANCH  19  23
ENDBRANCH   1  15
TORSDOF 5
