REMARK SMILES C[C@@H](Oc1nnc(-c2ccncc2)n1C)c1cc(-c2cccc(Cl)c2)on1
REMARK SMILES IDX 1 1 2 2 3 3 4 4 5 5 14 6 6 7 7 8 15 9 8 10 9 11 13 12 10 13
REMARK SMILES IDX 12 14 11 15 16 16 27 17 17 18 26 19 18 20 19 21 25 22 20 23
REMARK SMILES IDX 23 24 21 25 24 26 22 27
REMARK H PARENT
REMARK Flexibility Score: inf
ROOT
ATOM      1  C   UNL     1       0.666   3.144  -3.161  1.00  0.00     0.060 C 
ATOM      2  C   UNL     1       0.407   2.327  -1.893  1.00  0.00     0.226 C 
ENDROOT
BRANCH   2   3
ATOM      3  O   UNL     1      -0.799   1.573  -2.126  1.00  0.00    -0.454 OA
BRANCH   3   4
ATOM      4  C   UNL     1      -1.445   1.189  -1.030  1.00  0.00     0.317 A 
ATOM      5  N   UNL     1      -1.200   1.559   0.204  1.00  0.00    -0.092 NA
ATOM      6  N   UNL     1      -2.502   0.326  -1.051  1.00  0.00    -0.280 N 
ATOM      7  N   UNL     1      -2.105   0.917   1.014  1.00  0.00    -0.127 NA
ATOM      8  C   UNL     1      -2.872   0.144   0.262  1.00  0.00     0.166 A 
ATOM      9  C   UNL     1      -3.114  -0.220  -2.233  1.00  0.00     0.157 C 
BRANCH   8  10
ATOM     10  C   UNL     1      -3.949  -0.710   0.757  1.00  0.00     0.022 A 
ATOM     11  C   UNL     1      -4.097  -2.033   0.337  1.00  0.00     0.032 A 
ATOM     12  C   UNL     1      -4.837  -0.206   1.710  1.00  0.00     0.032 A 
ATOM     13  C   UNL     1      -5.141  -2.778   0.860  1.00  0.00     0.111 A 
ATOM     14  C   UNL     1      -5.850  -1.029   2.171  1.00  0.00     0.111 A 
ATOM     15  N   UNL     1      -6.028  -2.301   1.757  1.00  0.00    -0.265 NA
ENDBRANCH   8  10
ENDBRANCH   3   4
ENDBRANCH   2   3
BRANCH   2  16
ATOM     16  C   UNL     1       1.566   1.437  -1.537  1.00  0.00     0.124 A 
ATOM     17  N   UNL     1       2.239   0.747  -2.469  1.00  0.00    -0.080 NA
ATOM     18  C   UNL     1       2.080   1.172  -0.244  1.00  0.00     0.082 A 
ATOM     19  O   UNL     1       3.207   0.037  -1.785  1.00  0.00    -0.356 OA
ATOM     20  C   UNL     1       3.112   0.285  -0.447  1.00  0.00     0.167 A 
BRANCH  20  21
ATOM     21  C   UNL     1       4.059  -0.410   0.419  1.00  0.00     0.022 A 
ATOM     22  C   UNL     1       3.958  -0.301   1.814  1.00  0.00     0.032 A 
ATOM     23  C   UNL     1       5.093  -1.199  -0.114  1.00  0.00     0.012 A 
ATOM     24  C   UNL     1       4.865  -0.963   2.644  1.00  0.00     0.041 A 
ATOM     25  C   UNL     1       5.999  -1.860   0.721  1.00  0.00     0.002 A 
ATOM     26  Cl  UNL     1       4.722  -0.816   4.353  1.00  0.00    -0.084 Cl
ATOM     27  C   UNL     1       5.885  -1.742   2.103  1.00  0.00     0.020 A 
ENDBRANCH  20  21
ENDBRANCH   2  16
TORSDOF 5
