REMARK SMILES C[N+]1(C)[C@@H]2CC[C@H]1C[C@@H](OC(=O)C(CO)c1ccccc1)C2
REMARK SMILES IDX 11 1 12 2 10 3 9 4 1 5 2 6 3 7 4 8 7 9 5 10 22 11 6 12 8 13
REMARK SMILES IDX 13 14 14 15 15 16 16 18 17 19 21 20 18 21 20 22 19 23
REMARK H PARENT 15 17
REMARK Flexibility Score: inf
ROOT
ATOM      1  C   UNL     1       1.286  -0.068   0.984  1.00  0.00     0.316 C 
ATOM      2  O   UNL     1       1.226  -0.405   2.160  1.00  0.00    -0.251 OA
ENDROOT
BRANCH   1   3
ATOM      3  O   UNL     1       0.275  -0.273   0.081  1.00  0.00    -0.461 OA
BRANCH   3   4
ATOM      4  C   UNL     1      -0.913  -0.917   0.591  1.00  0.00     0.188 C 
ATOM      5  C   UNL     1      -4.349  -1.119   0.520  1.00  0.00     0.334 C 
ATOM      6  N   UNL     1      -3.638  -0.059  -0.320  1.00  0.00    -0.323 N 
ATOM      7  C   UNL     1      -4.776   0.700  -1.036  1.00  0.00     0.334 C 
ATOM      8  C   UNL     1      -2.734   0.908   0.471  1.00  0.00     0.189 C 
ATOM      9  C   UNL     1      -2.607  -0.604  -1.328  1.00  0.00     0.189 C 
ATOM     10  C   UNL     1      -1.973   1.652  -0.638  1.00  0.00     0.071 C 
ATOM     11  C   UNL     1      -1.771   0.106   1.362  1.00  0.00     0.110 C 
ATOM     12  C   UNL     1      -1.892   0.668  -1.810  1.00  0.00     0.071 C 
ATOM     13  C   UNL     1      -1.630  -1.553  -0.612  1.00  0.00     0.110 C 
ENDBRANCH   3   4
ENDBRANCH   1   3
BRANCH   1  14
ATOM     14  C   UNL     1       2.448   0.654   0.325  1.00  0.00     0.155 C 
BRANCH  14  15
ATOM     15  C   UNL     1       2.725   1.943   1.103  1.00  0.00     0.176 C 
BRANCH  15  16
ATOM     16  O   UNL     1       1.653   2.871   0.900  1.00  0.00    -0.395 OA
ATOM     17  H   UNL     1       1.924   3.698   1.341  1.00  0.00     0.210 HD
ENDBRANCH  15  16
ENDBRANCH  14  15
BRANCH  14  18
ATOM     18  C   UNL     1       3.679  -0.225   0.206  1.00  0.00    -0.032 A 
ATOM     19  C   UNL     1       4.252  -0.455  -1.055  1.00  0.00     0.005 A 
ATOM     20  C   UNL     1       4.281  -0.808   1.332  1.00  0.00     0.005 A 
ATOM     21  C   UNL     1       5.393  -1.249  -1.186  1.00  0.00     0.000 A 
ATOM     22  C   UNL     1       5.421  -1.604   1.198  1.00  0.00     0.000 A 
ATOM     23  C   UNL     1       5.976  -1.824  -0.060  1.00  0.00     0.000 A 
ENDBRANCH  14  18
ENDBRANCH   1  14
TORSDOF 6
