REMARK SMILES Nc1nc(O)c2ncn(CCC(CO)CO)c2n1
REMARK SMILES IDX 11 1 10 2 9 3 2 4 3 5 18 6 4 7 17 8 6 9 7 10 8 11 1 12 5 15
REMARK SMILES IDX 12 17 13 18 14 19 15 21 16 22
REMARK H PARENT 1 13 1 14 5 16 14 20 16 23
REMARK Flexibility Score: inf
ROOT
ATOM      1  C   UNL     1       1.374   0.988  -0.441  1.00  0.00     0.030 C 
ENDROOT
BRANCH   1   2
ATOM      2  C   UNL     1       0.605   0.921   0.883  1.00  0.00     0.126 C 
BRANCH   2   3
ATOM      3  N   UNL     1      -0.816   1.146   0.699  1.00  0.00    -0.315 N 
ATOM      4  C   UNL     1      -2.539  -1.578  -0.803  1.00  0.00     0.225 A 
ATOM      5  N   UNL     1      -3.786  -1.077  -0.819  1.00  0.00    -0.176 NA
ATOM      6  N   UNL     1      -1.427  -0.971  -0.345  1.00  0.00    -0.193 NA
ATOM      7  C   UNL     1      -3.983   0.154  -0.309  1.00  0.00     0.244 A 
ATOM      8  C   UNL     1      -1.691   0.249   0.152  1.00  0.00     0.169 A 
ATOM      9  C   UNL     1      -2.917   0.881   0.207  1.00  0.00     0.170 A 
ATOM     10  N   UNL     1      -2.812   2.133   0.770  1.00  0.00    -0.229 NA
ATOM     11  C   UNL     1      -1.530   2.258   1.058  1.00  0.00     0.202 A 
BRANCH   4  12
ATOM     12  N   UNL     1      -2.374  -2.832  -1.355  1.00  0.00    -0.368 N 
ATOM     13  H   UNL     1      -1.441  -2.951  -1.727  1.00  0.00     0.159 HD
ATOM     14  H   UNL     1      -3.146  -3.032  -1.976  1.00  0.00     0.159 HD
ENDBRANCH   4  12
BRANCH   7  15
ATOM     15  O   UNL     1      -5.264   0.650  -0.335  1.00  0.00    -0.492 OA
ATOM     16  H   UNL     1      -5.190   1.531   0.077  1.00  0.00     0.295 HD
ENDBRANCH   7  15
ENDBRANCH   2   3
ENDBRANCH   1   2
BRANCH   1  17
ATOM     17  C   UNL     1       2.583   0.034  -0.556  1.00  0.00     0.042 C 
BRANCH  17  18
ATOM     18  C   UNL     1       3.720   0.403   0.401  1.00  0.00     0.162 C 
BRANCH  18  19
ATOM     19  O   UNL     1       3.304   0.291   1.753  1.00  0.00    -0.396 OA
ATOM     20  H   UNL     1       4.089   0.454   2.307  1.00  0.00     0.210 HD
ENDBRANCH  18  19
ENDBRANCH  17  18
BRANCH  17  21
ATOM     21  C   UNL     1       2.202  -1.448  -0.408  1.00  0.00     0.162 C 
BRANCH  21  22
ATOM     22  O   UNL     1       1.159  -1.799  -1.310  1.00  0.00    -0.396 OA
ATOM     23  H   UNL     1       0.314  -1.516  -0.900  1.00  0.00     0.210 HD
ENDBRANCH  21  22
ENDBRANCH  17  21
ENDBRANCH   1  17
TORSDOF 9
