REMARK SMILES NS(=O)(=O)c1cc2c(cc1Cl)NC(C(Cl)Cl)NS2(=O)=O
REMARK SMILES IDX 5 1 6 2 7 3 8 4 9 5 10 6 11 7 12 8 13 9 17 10 18 11 19 12
REMARK SMILES IDX 20 13 2 16 3 17 4 18 1 19 14 22 15 23 16 24
REMARK H PARENT 12 14 17 15 1 20 1 21
REMARK Flexibility Score: inf
ROOT
ATOM      1  C   UNL     1      -2.250  -0.451  -0.251  1.00  0.00     0.102 A 
ATOM      2  C   UNL     1      -1.267  -0.833   0.669  1.00  0.00     0.047 A 
ATOM      3  C   UNL     1       0.068  -0.479   0.439  1.00  0.00     0.107 A 
ATOM      4  C   UNL     1       0.466   0.232  -0.694  1.00  0.00     0.057 A 
ATOM      5  C   UNL     1      -0.544   0.639  -1.579  1.00  0.00     0.049 A 
ATOM      6  C   UNL     1      -1.891   0.293  -1.376  1.00  0.00     0.063 A 
ATOM      7  Cl  UNL     1      -3.022   0.880  -2.542  1.00  0.00    -0.083 Cl
ATOM      8  N   UNL     1       1.772   0.684  -0.910  1.00  0.00    -0.366 N 
ATOM      9  C   UNL     1       2.871   0.030  -0.194  1.00  0.00     0.195 C 
ATOM     10  N   UNL     1       2.551   0.069   1.222  1.00  0.00    -0.187 NA
ATOM     11  S   UNL     1       1.279  -0.919   1.637  1.00  0.00     0.244 S 
ATOM     12  O   UNL     1       0.810  -0.472   2.927  1.00  0.00    -0.207 OA
ATOM     13  O   UNL     1       1.661  -2.286   1.368  1.00  0.00    -0.207 OA
ATOM     14  H   UNL     1       1.970   0.831  -1.899  1.00  0.00     0.162 HD
ATOM     15  H   UNL     1       2.480   1.000   1.631  1.00  0.00     0.143 HD
ENDROOT
BRANCH   1  16
ATOM     16  S   UNL     1      -3.920  -0.961   0.040  1.00  0.00     0.239 S 
ATOM     17  O   UNL     1      -4.407  -1.611  -1.153  1.00  0.00    -0.207 OA
ATOM     18  O   UNL     1      -3.970  -1.604   1.333  1.00  0.00    -0.207 OA
BRANCH  16  19
ATOM     19  N   UNL     1      -4.758   0.488   0.192  1.00  0.00    -0.225 NA
ATOM     20  H   UNL     1      -5.416   0.577  -0.586  1.00  0.00     0.137 HD
ATOM     21  H   UNL     1      -4.168   1.312   0.289  1.00  0.00     0.137 HD
ENDBRANCH  16  19
ENDBRANCH   1  16
BRANCH   9  22
ATOM     22  C   UNL     1       4.240   0.726  -0.488  1.00  0.00     0.210 C 
ATOM     23  Cl  UNL     1       4.271   2.427   0.079  1.00  0.00    -0.102 Cl
ATOM     24  Cl  UNL     1       5.608  -0.161   0.240  1.00  0.00    -0.102 Cl
ENDBRANCH   9  22
TORSDOF 3
