REMARK SMILES CN(C)CCN1C(=O)c2ccccc2N(C)c2ccccc21
REMARK SMILES IDX 4 1 2 2 1 3 3 4 5 5 6 6 7 7 22 8 8 9 9 10 17 11 21 12 10 13
REMARK SMILES IDX 14 14 15 15 18 16 20 17 11 18 13 19 16 20 19 21 12 22
REMARK H PARENT
REMARK Flexibility Score: inf
ROOT
ATOM      1  C   UNL     1      -2.676  -0.587   0.743  1.00  0.00     0.106 C 
ENDROOT
BRANCH   1   2
ATOM      2  N   UNL     1      -4.144  -0.616   0.596  1.00  0.00    -0.308 NA
ATOM      3  C   UNL     1      -4.705   0.679   0.227  1.00  0.00     0.105 C 
ATOM      4  C   UNL     1      -4.583  -1.662  -0.324  1.00  0.00     0.105 C 
ENDBRANCH   1   2
BRANCH   1   5
ATOM      5  C   UNL     1      -1.841  -0.225  -0.508  1.00  0.00     0.141 C 
BRANCH   5   6
ATOM      6  N   UNL     1      -0.394  -0.169  -0.230  1.00  0.00    -0.305 N 
ATOM      7  C   UNL     1       0.240  -1.417  -0.152  1.00  0.00     0.260 C 
ATOM      8  C   UNL     1       0.228   1.120  -0.091  1.00  0.00     0.068 A 
ATOM      9  O   UNL     1      -0.370  -2.469  -0.379  1.00  0.00    -0.269 OA
ATOM     10  C   UNL     1       1.631  -1.572   0.324  1.00  0.00     0.064 A 
ATOM     11  C   UNL     1       1.563   1.375  -0.489  1.00  0.00     0.065 A 
ATOM     12  C   UNL     1      -0.548   2.205   0.378  1.00  0.00     0.028 A 
ATOM     13  C   UNL     1       1.894  -2.668   1.169  1.00  0.00     0.016 A 
ATOM     14  C   UNL     1       2.674  -0.767  -0.144  1.00  0.00     0.054 A 
ATOM     15  N   UNL     1       2.405   0.342  -0.968  1.00  0.00    -0.342 N 
ATOM     16  C   UNL     1       2.051   2.701  -0.394  1.00  0.00     0.028 A 
ATOM     17  C   UNL     1      -0.039   3.501   0.465  1.00  0.00     0.002 A 
ATOM     18  C   UNL     1       3.194  -2.961   1.573  1.00  0.00     0.001 A 
ATOM     19  C   UNL     1       3.982  -1.089   0.271  1.00  0.00     0.027 A 
ATOM     20  C   UNL     1       3.438   0.709  -1.938  1.00  0.00     0.150 C 
ATOM     21  C   UNL     1       1.264   3.750   0.076  1.00  0.00     0.002 A 
ATOM     22  C   UNL     1       4.240  -2.169   1.121  1.00  0.00     0.002 A 
ENDBRANCH   5   6
ENDBRANCH   1   5
TORSDOF 3
