REMARK SMILES N#CCNC(=O)c1ccc(-c2ccnc(Nc3ccc(N4CCOCC4)cc3)n2)cc1
REMARK SMILES IDX 7 1 8 2 9 3 10 4 30 5 31 6 5 7 4 8 6 10 3 11 2 12 1 13 11 14
REMARK SMILES IDX 12 15 29 16 13 17 15 18 14 19 16 20 17 22 18 23 28 24 19 25
REMARK SMILES IDX 27 26 20 27 21 28 22 29 26 30 23 31 25 32 24 33
REMARK H PARENT 4 9 16 21
REMARK Flexibility Score: inf
ROOT
ATOM      1  C   UNL     1       6.537  -0.190  -0.261  1.00  0.00     0.039 A 
ATOM      2  C   UNL     1       5.557   0.783  -0.056  1.00  0.00     0.014 A 
ATOM      3  C   UNL     1       4.221   0.507  -0.374  1.00  0.00     0.011 A 
ATOM      4  C   UNL     1       3.829  -0.734  -0.912  1.00  0.00     0.000 A 
ATOM      5  C   UNL     1       4.836  -1.695  -1.116  1.00  0.00     0.011 A 
ATOM      6  C   UNL     1       6.173  -1.426  -0.802  1.00  0.00     0.014 A 
ENDROOT
BRANCH   1   7
ATOM      7  C   UNL     1       7.971   0.049   0.057  1.00  0.00     0.252 C 
ATOM      8  N   UNL     1       8.238   0.949   1.067  1.00  0.00    -0.339 N 
ATOM      9  H   UNL     1       7.485   1.216   1.688  1.00  0.00     0.164 HD
ATOM     10  O   UNL     1       8.849  -0.558  -0.543  1.00  0.00    -0.269 OA
BRANCH   8  11
ATOM     11  C   UNL     1       9.597   1.116   1.554  1.00  0.00     0.237 C 
BRANCH  11  12
ATOM     12  C   UNL     1       9.902   0.197   2.664  1.00  0.00     0.084 C 
ATOM     13  N   UNL     1      10.123  -0.501   3.566  1.00  0.00    -0.196 NA
ENDBRANCH  11  12
ENDBRANCH   8  11
ENDBRANCH   1   7
BRANCH   4  14
ATOM     14  C   UNL     1       2.412  -0.997  -1.241  1.00  0.00     0.076 A 
ATOM     15  C   UNL     1       2.023  -1.796  -2.296  1.00  0.00     0.049 A 
ATOM     16  N   UNL     1       1.506  -0.390  -0.441  1.00  0.00    -0.213 NA
ATOM     17  C   UNL     1       0.671  -1.940  -2.474  1.00  0.00     0.117 A 
ATOM     18  C   UNL     1       0.200  -0.591  -0.684  1.00  0.00     0.227 A 
ATOM     19  N   UNL     1      -0.247  -1.356  -1.688  1.00  0.00    -0.221 NA
BRANCH  18  20
ATOM     20  N   UNL     1      -0.663   0.059   0.194  1.00  0.00    -0.324 N 
ATOM     21  H   UNL     1      -0.115   0.551   0.883  1.00  0.00     0.170 HD
BRANCH  20  22
ATOM     22  C   UNL     1      -2.052   0.123   0.325  1.00  0.00     0.041 A 
ATOM     23  C   UNL     1      -2.597   0.878   1.369  1.00  0.00     0.028 A 
ATOM     24  C   UNL     1      -2.951  -0.515  -0.526  1.00  0.00     0.028 A 
ATOM     25  C   UNL     1      -3.985   0.986   1.552  1.00  0.00     0.028 A 
ATOM     26  C   UNL     1      -4.339  -0.406  -0.337  1.00  0.00     0.028 A 
ATOM     27  C   UNL     1      -4.898   0.346   0.704  1.00  0.00     0.037 A 
BRANCH  27  28
ATOM     28  N   UNL     1      -6.264   0.450   0.886  1.00  0.00    -0.367 N 
ATOM     29  C   UNL     1      -6.870   1.531   1.678  1.00  0.00     0.145 C 
ATOM     30  C   UNL     1      -7.207  -0.508   0.286  1.00  0.00     0.145 C 
ATOM     31  C   UNL     1      -8.300   1.810   1.184  1.00  0.00     0.181 C 
ATOM     32  C   UNL     1      -8.493  -0.577   1.127  1.00  0.00     0.181 C 
ATOM     33  O   UNL     1      -9.177   0.677   1.258  1.00  0.00    -0.378 OA
ENDBRANCH  27  28
ENDBRANCH  20  22
ENDBRANCH  18  20
ENDBRANCH   4  14
TORSDOF 7
