REMARK SMILES CC(C)NCC1CCc2cc(CO)c([N+](=O)[O-])cc2N1
REMARK SMILES IDX 6 1 7 2 8 3 9 4 10 5 11 6 14 7 18 8 19 9 20 10 5 12 4 13
REMARK SMILES IDX 2 15 1 16 3 17 15 18 16 19 17 20 12 21 13 22
REMARK H PARENT 20 11 4 14 13 23
REMARK Flexibility Score: inf
ROOT
ATOM      1  C   UNL     1      -0.941   0.118  -0.376  1.00  0.00     0.093 C 
ATOM      2  C   UNL     1      -0.754   1.473   0.315  1.00  0.00     0.031 C 
ATOM      3  C   UNL     1       0.569   2.094  -0.122  1.00  0.00     0.040 C 
ATOM      4  C   UNL     1       1.707   1.110  -0.037  1.00  0.00    -0.024 A 
ATOM      5  C   UNL     1       3.029   1.591  -0.022  1.00  0.00     0.019 A 
ATOM      6  C   UNL     1       4.125   0.719   0.055  1.00  0.00     0.056 A 
ATOM      7  C   UNL     1       3.850  -0.658   0.088  1.00  0.00     0.276 A 
ATOM      8  C   UNL     1       2.535  -1.150   0.065  1.00  0.00     0.112 A 
ATOM      9  C   UNL     1       1.454  -0.271  -0.033  1.00  0.00     0.044 A 
ATOM     10  N   UNL     1       0.152  -0.784   0.022  1.00  0.00    -0.381 N 
ATOM     11  H   UNL     1       0.083  -1.705  -0.407  1.00  0.00     0.160 HD
ENDROOT
BRANCH   1  12
ATOM     12  C   UNL     1      -2.296  -0.547   0.001  1.00  0.00     0.106 C 
BRANCH  12  13
ATOM     13  N   UNL     1      -3.464   0.215  -0.464  1.00  0.00    -0.312 NA
ATOM     14  H   UNL     1      -3.483   1.115   0.016  1.00  0.00     0.123 HD
BRANCH  13  15
ATOM     15  C   UNL     1      -4.764  -0.441  -0.256  1.00  0.00     0.047 C 
ATOM     16  C   UNL     1      -5.088  -0.679   1.220  1.00  0.00     0.024 C 
ATOM     17  C   UNL     1      -4.918  -1.726  -1.071  1.00  0.00     0.024 C 
ENDBRANCH  13  15
ENDBRANCH  12  13
ENDBRANCH   1  12
BRANCH   7  18
ATOM     18  N   UNL     1       4.927  -1.641   0.140  1.00  0.00     0.063 N 
ATOM     19  O   UNL     1       4.797  -2.590   0.925  1.00  0.00    -0.258 OA
ATOM     20  O   UNL     1       5.900  -1.465  -0.610  1.00  0.00    -0.258 OA
ENDBRANCH   7  18
BRANCH   6  21
ATOM     21  C   UNL     1       5.514   1.295   0.096  1.00  0.00     0.199 C 
BRANCH  21  22
ATOM     22  O   UNL     1       6.092   1.236  -1.197  1.00  0.00    -0.391 OA
ATOM     23  H   UNL     1       6.352   0.304  -1.344  1.00  0.00     0.211 HD
ENDBRANCH  21  22
ENDBRANCH   6  21
TORSDOF 6
