REMARK SMILES CCOC(=O)C1=C(C)NC(C)=C(C(=O)OC)C1c1cccc([N+](=O)[O-])c1
REMARK SMILES IDX 6 1 7 2 8 3 9 4 10 5 11 6 12 7 17 8 4 10 5 11 3 12 2 13 1 14
REMARK SMILES IDX 18 15 19 16 26 17 20 18 22 19 21 20 23 21 24 22 25 23 13 24
REMARK SMILES IDX 14 25 15 26 16 27
REMARK H PARENT 9 9
REMARK Flexibility Score: inf
ROOT
ATOM      1  C   UNL     1       1.167  -0.802  -0.641  1.00  0.00     0.068 C 
ATOM      2  C   UNL     1       1.409  -1.901   0.108  1.00  0.00     0.023 C 
ATOM      3  C   UNL     1       2.778  -2.361   0.539  1.00  0.00     0.065 C 
ATOM      4  N   UNL     1       0.351  -2.714   0.487  1.00  0.00    -0.362 N 
ATOM      5  C   UNL     1      -0.956  -2.558   0.047  1.00  0.00     0.023 C 
ATOM      6  C   UNL     1      -1.910  -3.665   0.414  1.00  0.00     0.065 C 
ATOM      7  C   UNL     1      -1.280  -1.480  -0.703  1.00  0.00     0.068 C 
ATOM      8  C   UNL     1      -0.242  -0.433  -1.087  1.00  0.00     0.098 C 
ATOM      9  H   UNL     1       0.574  -3.567   0.995  1.00  0.00     0.166 HD
ENDROOT
BRANCH   1  10
ATOM     10  C   UNL     1       2.224   0.114  -1.116  1.00  0.00     0.336 C 
ATOM     11  O   UNL     1       2.331   0.474  -2.278  1.00  0.00    -0.246 OA
BRANCH  10  12
ATOM     12  O   UNL     1       2.972   0.543  -0.069  1.00  0.00    -0.463 OA
BRANCH  12  13
ATOM     13  C   UNL     1       3.977   1.500  -0.422  1.00  0.00     0.230 C 
ATOM     14  C   UNL     1       4.723   1.886   0.840  1.00  0.00     0.049 C 
ENDBRANCH  12  13
ENDBRANCH  10  12
ENDBRANCH   1  10
BRANCH   8  15
ATOM     15  C   UNL     1      -0.638   0.950  -0.551  1.00  0.00    -0.029 A 
ATOM     16  C   UNL     1      -0.912   1.996  -1.447  1.00  0.00     0.005 A 
ATOM     17  C   UNL     1      -0.732   1.196   0.832  1.00  0.00     0.090 A 
ATOM     18  C   UNL     1      -1.272   3.262  -0.980  1.00  0.00     0.007 A 
ATOM     19  C   UNL     1      -1.093   2.470   1.293  1.00  0.00     0.269 A 
ATOM     20  C   UNL     1      -1.364   3.505   0.390  1.00  0.00     0.085 A 
BRANCH  19  21
ATOM     21  N   UNL     1      -1.189   2.721   2.736  1.00  0.00     0.062 N 
ATOM     22  O   UNL     1      -1.512   3.860   3.104  1.00  0.00    -0.258 OA
ATOM     23  O   UNL     1      -0.940   1.781   3.505  1.00  0.00    -0.258 OA
ENDBRANCH  19  21
ENDBRANCH   8  15
BRANCH   7  24
ATOM     24  C   UNL     1      -2.632  -1.233  -1.245  1.00  0.00     0.336 C 
ATOM     25  O   UNL     1      -2.847  -0.952  -2.413  1.00  0.00    -0.246 OA
BRANCH  24  26
ATOM     26  O   UNL     1      -3.551  -1.282  -0.248  1.00  0.00    -0.466 OA
ATOM     27  C   UNL     1      -4.880  -0.980  -0.674  1.00  0.00     0.282 C 
ENDBRANCH  24  26
ENDBRANCH   7  24
TORSDOF 7
