REMARK SMILES Cn1cc(-c2cnc3cnn(S(=O)(=O)c4cnc5ccc(-c6cnn(C)c6)cn45)c3c2)cn1
REMARK SMILES IDX 12 1 13 2 14 3 15 4 21 5 28 6 20 7 29 8 19 9 18 10 17 11
REMARK SMILES IDX 16 12 22 13 26 14 25 15 27 16 24 17 23 18 11 19 10 20 30 21
REMARK SMILES IDX 9 22 8 23 31 24 7 25 5 26 6 27 4 28 3 29 32 30 2 31 33 32
REMARK SMILES IDX 1 33
REMARK H PARENT
REMARK Flexibility Score: inf
ROOT
ATOM      1  S   UNL     1       0.179  -1.152  -1.749  1.00  0.00     0.301 S 
ATOM      2  O   UNL     1       1.181  -1.889  -2.494  1.00  0.00    -0.198 OA
ATOM      3  O   UNL     1      -0.104   0.248  -1.994  1.00  0.00    -0.198 OA
ENDROOT
BRANCH   1   4
ATOM      4  C   UNL     1      -1.322  -2.021  -1.980  1.00  0.00     0.182 A 
ATOM      5  C   UNL     1      -4.186  -0.363  -0.266  1.00  0.00     0.002 C 
ATOM      6  C   UNL     1      -2.913  -0.526  -0.692  1.00  0.00     0.103 C 
ATOM      7  C   UNL     1      -5.141  -1.417  -0.639  1.00  0.00     0.014 C 
ATOM      8  N   UNL     1      -2.542  -1.641  -1.452  1.00  0.00    -0.288 N 
ATOM      9  C   UNL     1      -4.791  -2.485  -1.380  1.00  0.00     0.048 C 
ATOM     10  C   UNL     1      -3.452  -2.628  -1.826  1.00  0.00     0.137 A 
ATOM     11  N   UNL     1      -2.893  -3.564  -2.560  1.00  0.00    -0.236 NA
ATOM     12  C   UNL     1      -1.584  -3.194  -2.663  1.00  0.00     0.154 A 
BRANCH   5  13
ATOM     13  C   UNL     1      -4.600   0.773   0.509  1.00  0.00     0.021 A 
ATOM     14  C   UNL     1      -6.883   3.156   1.955  1.00  0.00     0.173 C 
ATOM     15  N   UNL     1      -5.796   2.330   1.493  1.00  0.00    -0.275 N 
ATOM     16  C   UNL     1      -5.888   1.228   0.693  1.00  0.00     0.117 A 
ATOM     17  N   UNL     1      -4.535   2.633   1.844  1.00  0.00    -0.181 NA
ATOM     18  C   UNL     1      -3.809   1.684   1.248  1.00  0.00     0.143 A 
ENDBRANCH   5  13
ENDBRANCH   1   4
BRANCH   1  19
ATOM     19  N   UNL     1       0.661  -1.252  -0.101  1.00  0.00    -0.150 N 
ATOM     20  N   UNL     1      -0.166  -1.637   0.917  1.00  0.00    -0.163 NA
ATOM     21  C   UNL     1       1.901  -0.821   0.320  1.00  0.00     0.106 A 
ATOM     22  C   UNL     1       0.603  -1.501   2.001  1.00  0.00     0.165 A 
ATOM     23  C   UNL     1       1.882  -1.000   1.697  1.00  0.00     0.110 A 
ATOM     24  C   UNL     1       3.033  -0.300  -0.325  1.00  0.00     0.042 A 
ATOM     25  N   UNL     1       2.929  -0.711   2.503  1.00  0.00    -0.252 NA
ATOM     26  C   UNL     1       4.128   0.024   0.486  1.00  0.00     0.005 A 
ATOM     27  C   UNL     1       4.014  -0.211   1.859  1.00  0.00     0.120 A 
BRANCH  26  28
ATOM     28  C   UNL     1       5.337   0.583  -0.097  1.00  0.00     0.021 A 
ATOM     29  C   UNL     1       6.257   1.368   0.568  1.00  0.00     0.117 A 
ATOM     30  C   UNL     1       5.845   0.518  -1.417  1.00  0.00     0.143 A 
ATOM     31  N   UNL     1       7.213   1.703  -0.345  1.00  0.00    -0.275 N 
ATOM     32  N   UNL     1       6.986   1.193  -1.566  1.00  0.00    -0.181 NA
ATOM     33  C   UNL     1       8.371   2.528  -0.108  1.00  0.00     0.173 C 
ENDBRANCH  26  28
ENDBRANCH   1  19
TORSDOF 4
