REMARK SMILES C#CCN(C)[C@H](C)Cc1ccccc1
REMARK SMILES IDX 6 1 7 2 4 3 5 4 3 5 2 6 1 7 8 8 9 9 10 10 14 11 11 12 13 13
REMARK SMILES IDX 12 14
REMARK H PARENT
REMARK Flexibility Score: inf
ROOT
ATOM      1  C   UNL     1      -0.739  -0.324  -0.194  1.00  0.00     0.058 C 
ATOM      2  C   UNL     1      -0.210  -1.526  -0.995  1.00  0.00     0.025 C 
ENDROOT
BRANCH   1   3
ATOM      3  N   UNL     1      -2.179  -0.413   0.170  1.00  0.00    -0.292 NA
ATOM      4  C   UNL     1      -2.559  -1.688   0.778  1.00  0.00     0.106 C 
BRANCH   3   5
ATOM      5  C   UNL     1      -3.079  -0.100  -0.951  1.00  0.00     0.174 C 
BRANCH   5   6
ATOM      6  C   UNL     1      -3.029   1.328  -1.310  1.00  0.00    -0.091 C 
ATOM      7  C   UNL     1      -2.993   2.492  -1.605  1.00  0.00     0.005 C 
ENDBRANCH   5   6
ENDBRANCH   3   5
ENDBRANCH   1   3
BRANCH   1   8
ATOM      8  C   UNL     1       0.106  -0.085   1.087  1.00  0.00     0.054 C 
BRANCH   8   9
ATOM      9  C   UNL     1       1.528   0.354   0.810  1.00  0.00    -0.046 A 
ATOM     10  C   UNL     1       2.598  -0.532   0.994  1.00  0.00     0.004 A 
ATOM     11  C   UNL     1       1.792   1.655   0.360  1.00  0.00     0.004 A 
ATOM     12  C   UNL     1       3.907  -0.124   0.730  1.00  0.00     0.000 A 
ATOM     13  C   UNL     1       3.101   2.060   0.097  1.00  0.00     0.000 A 
ATOM     14  C   UNL     1       4.158   1.171   0.281  1.00  0.00     0.000 A 
ENDBRANCH   8   9
ENDBRANCH   1   8
TORSDOF 5
