REMARK SMILES O=C1CC2(CCCC2)CC(=O)N1CCCCN1CCN(c2ncccn2)CC1
REMARK SMILES IDX 15 1 14 2 13 3 12 4 1 5 2 6 3 7 4 8 10 9 5 10 9 11 8 12
REMARK SMILES IDX 11 13 6 14 7 15 16 16 17 17 18 18 28 19 19 20 27 21 20 22
REMARK SMILES IDX 21 23 22 24 26 25 23 26 25 27 24 28
REMARK H PARENT
REMARK Flexibility Score: inf
ROOT
ATOM      1  C   UNL     1       0.039  -0.476  -0.936  1.00  0.00     0.017 C 
ENDROOT
BRANCH   1   2
ATOM      2  C   UNL     1      -0.220  -0.652   0.562  1.00  0.00     0.023 C 
BRANCH   2   3
ATOM      3  C   UNL     1      -1.570  -1.315   0.866  1.00  0.00     0.128 C 
BRANCH   3   4
ATOM      4  N   UNL     1      -2.718  -0.468   0.541  1.00  0.00    -0.283 N 
ATOM      5  O   UNL     1      -3.079  -1.621  -1.432  1.00  0.00    -0.274 OA
ATOM      6  C   UNL     1      -3.410  -0.740  -0.638  1.00  0.00     0.229 C 
ATOM      7  C   UNL     1      -4.588   0.151  -0.964  1.00  0.00     0.108 C 
ATOM      8  C   UNL     1      -5.268   0.715   0.284  1.00  0.00    -0.012 C 
ATOM      9  C   UNL     1      -3.040   0.537   1.451  1.00  0.00     0.229 C 
ATOM     10  C   UNL     1      -6.021  -0.357   1.092  1.00  0.00     0.008 C 
ATOM     11  C   UNL     1      -4.201   1.436   1.096  1.00  0.00     0.108 C 
ATOM     12  C   UNL     1      -6.417   1.665  -0.092  1.00  0.00     0.008 C 
ATOM     13  O   UNL     1      -2.398   0.748   2.482  1.00  0.00    -0.274 OA
ATOM     14  C   UNL     1      -7.352  -0.541   0.366  1.00  0.00     0.001 C 
ATOM     15  C   UNL     1      -7.599   0.753  -0.408  1.00  0.00     0.001 C 
ENDBRANCH   3   4
ENDBRANCH   2   3
ENDBRANCH   1   2
BRANCH   1  16
ATOM     16  C   UNL     1       1.358   0.227  -1.290  1.00  0.00     0.084 C 
BRANCH  16  17
ATOM     17  N   UNL     1       2.543  -0.532  -0.872  1.00  0.00    -0.300 NA
ATOM     18  C   UNL     1       3.609  -0.462  -1.900  1.00  0.00     0.106 C 
ATOM     19  C   UNL     1       3.061  -0.122   0.456  1.00  0.00     0.106 C 
ATOM     20  C   UNL     1       5.013  -0.814  -1.364  1.00  0.00     0.135 C 
ATOM     21  C   UNL     1       4.336   0.758   0.458  1.00  0.00     0.135 C 
ATOM     22  N   UNL     1       5.404   0.144  -0.332  1.00  0.00    -0.338 N 
BRANCH  22  23
ATOM     23  C   UNL     1       6.666   0.033   0.207  1.00  0.00     0.225 A 
ATOM     24  N   UNL     1       6.993   0.795   1.265  1.00  0.00    -0.221 NA
ATOM     25  N   UNL     1       7.541  -0.815  -0.363  1.00  0.00    -0.221 NA
ATOM     26  C   UNL     1       8.241   0.686   1.759  1.00  0.00     0.117 A 
ATOM     27  C   UNL     1       8.778  -0.894   0.164  1.00  0.00     0.117 A 
ATOM     28  C   UNL     1       9.189  -0.156   1.242  1.00  0.00     0.040 A 
ENDBRANCH  22  23
ENDBRANCH  16  17
ENDBRANCH   1  16
TORSDOF 6
