REMARK SMILES Cn1c(Cn2ccc(C(F)(F)F)c(Oc3cc(Cl)cc(C#N)c3)c2=O)n[nH]c1=O
REMARK SMILES IDX 5 1 6 2 7 3 8 4 13 5 24 6 25 7 4 8 3 9 1 10 2 11 28 12 26 13
REMARK SMILES IDX 27 14 29 15 14 17 15 18 16 19 23 20 17 21 20 22 18 23 19 24
REMARK SMILES IDX 21 25 22 26 9 27 10 28 11 29 12 30
REMARK H PARENT 27 16
REMARK Flexibility Score: inf
ROOT
ATOM      1  N   UNL     1      -1.398  -0.365   0.516  1.00  0.00    -0.305 N 
ATOM      2  C   UNL     1      -1.725  -1.648   0.908  1.00  0.00     0.090 C 
ATOM      3  C   UNL     1      -0.865  -2.658   0.757  1.00  0.00     0.035 C 
ATOM      4  C   UNL     1       0.453  -2.435   0.185  1.00  0.00     0.105 C 
ATOM      5  C   UNL     1       0.825  -1.193  -0.182  1.00  0.00     0.204 C 
ATOM      6  C   UNL     1      -0.168  -0.056  -0.062  1.00  0.00     0.294 C 
ATOM      7  O   UNL     1       0.115   1.071  -0.465  1.00  0.00    -0.265 OA
ENDROOT
BRANCH   1   8
ATOM      8  C   UNL     1      -2.399   0.696   0.673  1.00  0.00     0.203 C 
BRANCH   8   9
ATOM      9  C   UNL     1      -3.484   0.561  -0.374  1.00  0.00     0.153 C 
ATOM     10  C   UNL     1      -2.313   1.802  -2.246  1.00  0.00     0.157 C 
ATOM     11  N   UNL     1      -3.383   1.060  -1.622  1.00  0.00    -0.281 N 
ATOM     12  C   UNL     1      -4.534   0.689  -2.267  1.00  0.00     0.343 C 
ATOM     13  N   UNL     1      -4.595  -0.087  -0.140  1.00  0.00    -0.156 NA
ATOM     14  N   UNL     1      -5.275  -0.007  -1.322  1.00  0.00    -0.227 N 
ATOM     15  O   UNL     1      -4.858   0.904  -3.421  1.00  0.00    -0.246 OA
ATOM     16  H   UNL     1      -6.179  -0.433  -1.473  1.00  0.00     0.195 HD
ENDBRANCH   8   9
ENDBRANCH   1   8
BRANCH   5  17
ATOM     17  O   UNL     1       2.068  -0.954  -0.758  1.00  0.00    -0.451 OA
BRANCH  17  18
ATOM     18  C   UNL     1       2.840   0.069  -0.259  1.00  0.00     0.130 A 
ATOM     19  C   UNL     1       3.564   0.814  -1.190  1.00  0.00     0.067 A 
ATOM     20  C   UNL     1       2.968   0.332   1.107  1.00  0.00     0.066 A 
ATOM     21  C   UNL     1       4.384   1.851  -0.753  1.00  0.00     0.046 A 
ATOM     22  C   UNL     1       3.793   1.378   1.538  1.00  0.00     0.057 A 
ATOM     23  Cl  UNL     1       5.270   2.779  -1.900  1.00  0.00    -0.084 Cl
ATOM     24  C   UNL     1       4.500   2.142   0.605  1.00  0.00     0.040 A 
BRANCH  22  25
ATOM     25  C   UNL     1       3.918   1.657   2.938  1.00  0.00     0.099 C 
ATOM     26  N   UNL     1       4.015   1.873   4.074  1.00  0.00    -0.192 NA
ENDBRANCH  22  25
ENDBRANCH  17  18
ENDBRANCH   5  17
BRANCH   4  27
ATOM     27  C   UNL     1       1.326  -3.649   0.069  1.00  0.00     0.420 C 
ATOM     28  F   UNL     1       0.794  -4.558  -0.789  1.00  0.00    -0.166 F 
ATOM     29  F   UNL     1       1.450  -4.279   1.268  1.00  0.00    -0.166 F 
ATOM     30  F   UNL     1       2.587  -3.400  -0.361  1.00  0.00    -0.166 F 
ENDBRANCH   4  27
TORSDOF 6
