REMARK SMILES Nc1nc(F)nc2c1ncn2[C@@H]1O[C@H](COP(=O)(O)O)[C@@H](O)[C@@H]1O
REMARK SMILES IDX 15 1 14 2 12 3 13 4 23 5 21 6 11 7 2 8 3 9 8 10 4 11 7 12
REMARK SMILES IDX 9 13 5 14 6 15 10 16 1 17 24 20 22 22 16 24 17 25 18 26
REMARK SMILES IDX 19 27 20 29
REMARK H PARENT 1 18 1 19 24 21 22 23 19 28 20 30
REMARK Flexibility Score: inf
ROOT
ATOM      1  C   UNL     1      -2.388  -0.130   1.605  1.00  0.00     0.208 C 
ENDROOT
BRANCH   1   2
ATOM      2  C   UNL     1      -1.783   0.594   0.402  1.00  0.00     0.179 C 
ATOM      3  C   UNL     1       0.397   1.153  -0.256  1.00  0.00     0.253 C 
ATOM      4  O   UNL     1      -0.575   1.279   0.808  1.00  0.00    -0.347 OA
ATOM      5  C   UNL     1      -0.327   0.498  -1.439  1.00  0.00     0.195 C 
ATOM      6  C   UNL     1      -1.384  -0.337  -0.738  1.00  0.00     0.179 C 
BRANCH   3   7
ATOM      7  N   UNL     1       1.557   0.433   0.238  1.00  0.00    -0.285 N 
ATOM      8  C   UNL     1       4.887  -0.615  -0.031  1.00  0.00     0.158 A 
ATOM      9  N   UNL     1       5.246  -0.145  -1.245  1.00  0.00    -0.183 NA
ATOM     10  C   UNL     1       3.578  -0.380   0.421  1.00  0.00     0.150 A 
ATOM     11  C   UNL     1       4.339   0.551  -1.962  1.00  0.00     0.312 A 
ATOM     12  C   UNL     1       2.755   0.346  -0.421  1.00  0.00     0.170 A 
ATOM     13  N   UNL     1       2.905  -0.741   1.567  1.00  0.00    -0.231 NA
ATOM     14  F   UNL     1       4.746   0.994  -3.162  1.00  0.00    -0.161 F 
ATOM     15  N   UNL     1       3.058   0.842  -1.632  1.00  0.00    -0.182 NA
ATOM     16  C   UNL     1       1.701  -0.222   1.431  1.00  0.00     0.204 A 
BRANCH   8  17
ATOM     17  N   UNL     1       5.826  -1.321   0.707  1.00  0.00    -0.382 N 
ATOM     18  H   UNL     1       5.428  -1.911   1.430  1.00  0.00     0.158 HD
ATOM     19  H   UNL     1       6.569  -1.706   0.138  1.00  0.00     0.158 HD
ENDBRANCH   8  17
ENDBRANCH   3   7
BRANCH   5  20
ATOM     20  O   UNL     1       0.440  -0.304  -2.328  1.00  0.00    -0.386 OA
ATOM     21  H   UNL     1       1.227   0.212  -2.599  1.00  0.00     0.211 HD
ENDBRANCH   5  20
BRANCH   6  22
ATOM     22  O   UNL     1      -2.450  -0.648  -1.622  1.00  0.00    -0.387 OA
ATOM     23  H   UNL     1      -2.050  -1.120  -2.377  1.00  0.00     0.211 HD
ENDBRANCH   6  22
ENDBRANCH   1   2
BRANCH   1  24
ATOM     24  O   UNL     1      -3.607  -0.765   1.272  1.00  0.00    -0.284 OA
BRANCH  24  25
ATOM     25  P   UNL     1      -4.962  -0.051   1.730  1.00  0.00     0.469 P 
ATOM     26  O   UNL     1      -5.198   0.075   3.193  1.00  0.00    -0.228 OA
BRANCH  25  27
ATOM     27  O   UNL     1      -4.979   1.332   0.934  1.00  0.00    -0.303 OA
ATOM     28  H   UNL     1      -5.800   1.822   1.116  1.00  0.00     0.223 HD
ENDBRANCH  25  27
BRANCH  25  29
ATOM     29  O   UNL     1      -6.084  -0.881   0.960  1.00  0.00    -0.303 OA
ATOM     30  H   UNL     1      -6.233  -1.746   1.382  1.00  0.00     0.223 HD
ENDBRANCH  25  29
ENDBRANCH  24  25
ENDBRANCH   1  24
TORSDOF 9
