REMARK SMILES Cc1[nH]cnc1CN1CCc2c(c3ccccc3n2C)C1=O
REMARK SMILES IDX 7 1 6 2 1 3 2 4 3 5 4 6 5 8 8 9 9 10 21 11 10 12 12 13 22 14
REMARK SMILES IDX 11 15 13 16 19 17 14 18 18 19 20 20 15 21 17 22 16 23
REMARK H PARENT 3 7
REMARK Flexibility Score: inf
ROOT
ATOM      1  C   UNL     1      -2.362  -1.483   1.175  1.00  0.00     0.177 C 
ENDROOT
BRANCH   1   2
ATOM      2  C   UNL     1      -3.182  -1.358  -0.071  1.00  0.00     0.080 A 
ATOM      3  C   UNL     1      -3.904   1.158  -0.151  1.00  0.00     0.066 C 
ATOM      4  C   UNL     1      -3.815  -0.248  -0.604  1.00  0.00     0.036 A 
ATOM      5  N   UNL     1      -4.400  -0.695  -1.762  1.00  0.00    -0.348 N 
ATOM      6  C   UNL     1      -4.117  -2.024  -1.887  1.00  0.00     0.197 A 
ATOM      7  H   UNL     1      -4.942  -0.142  -2.411  1.00  0.00     0.167 HD
ATOM      8  N   UNL     1      -3.384  -2.456  -0.888  1.00  0.00    -0.240 NA
ENDBRANCH   1   2
BRANCH   1   9
ATOM      9  N   UNL     1      -0.956  -1.221   0.892  1.00  0.00    -0.332 N 
ATOM     10  C   UNL     1      -0.256  -2.170   0.008  1.00  0.00     0.126 C 
ATOM     11  C   UNL     1      -0.482   0.088   1.068  1.00  0.00     0.256 C 
ATOM     12  C   UNL     1       1.273  -2.158   0.176  1.00  0.00     0.076 C 
ATOM     13  C   UNL     1       0.903   0.298   0.647  1.00  0.00     0.068 A 
ATOM     14  O   UNL     1      -1.154   0.989   1.562  1.00  0.00    -0.269 OA
ATOM     15  C   UNL     1       1.719  -0.741   0.239  1.00  0.00     0.033 A 
ATOM     16  C   UNL     1       1.678   1.491   0.573  1.00  0.00     0.013 A 
ATOM     17  N   UNL     1       2.956  -0.241  -0.059  1.00  0.00    -0.347 N 
ATOM     18  C   UNL     1       1.414   2.849   0.847  1.00  0.00     0.011 A 
ATOM     19  C   UNL     1       2.954   1.132   0.116  1.00  0.00     0.049 A 
ATOM     20  C   UNL     1       4.102  -1.012  -0.488  1.00  0.00     0.150 C 
ATOM     21  C   UNL     1       2.415   3.805   0.655  1.00  0.00     0.001 A 
ATOM     22  C   UNL     1       3.964   2.089  -0.084  1.00  0.00     0.027 A 
ATOM     23  C   UNL     1       3.672   3.428   0.194  1.00  0.00     0.002 A 
ENDBRANCH   1   9
TORSDOF 2
