REMARK SMILES c1ccc2c(-c3cnn4cc(-c5ccc(N6CCNCC6)cc5)cnc34)ccnc2c1
REMARK SMILES IDX 11 1 10 2 9 3 8 4 7 5 6 6 26 7 25 8 24 9 12 10 15 11 14 12
REMARK SMILES IDX 22 13 13 14 23 15 16 16 18 17 17 18 19 19 20 20 21 22 5 23
REMARK SMILES IDX 27 24 4 25 28 26 30 27 3 28 29 29 31 30 2 31 1 32
REMARK H PARENT 19 21
REMARK Flexibility Score: inf
ROOT
ATOM      1  C   UNL     1      -0.019   0.652  -0.257  1.00  0.00     0.018 C 
ATOM      2  C   UNL     1       0.616   1.650   0.382  1.00  0.00     0.125 C 
ATOM      3  N   UNL     1       2.004   1.697   0.426  1.00  0.00    -0.221 N 
ATOM      4  N   UNL     1       2.774   2.638   1.028  1.00  0.00    -0.174 NA
ATOM      5  C   UNL     1       4.025   2.245   0.786  1.00  0.00     0.146 A 
ATOM      6  C   UNL     1       4.094   1.045   0.051  1.00  0.00     0.047 A 
ATOM      7  C   UNL     1       2.776   0.709  -0.197  1.00  0.00     0.162 A 
ATOM      8  N   UNL     1       2.199  -0.333  -0.876  1.00  0.00    -0.236 NA
ATOM      9  C   UNL     1       0.899  -0.350  -0.892  1.00  0.00     0.124 C 
ENDROOT
BRANCH   1  10
ATOM     10  C   UNL     1      -1.479   0.555  -0.353  1.00  0.00    -0.015 A 
ATOM     11  C   UNL     1      -4.315   0.347  -0.545  1.00  0.00     0.037 A 
ATOM     12  C   UNL     1      -3.683   0.576   0.683  1.00  0.00     0.026 A 
ATOM     13  C   UNL     1      -3.490   0.221  -1.673  1.00  0.00     0.026 A 
ATOM     14  C   UNL     1      -2.288   0.678   0.781  1.00  0.00     0.011 A 
ATOM     15  C   UNL     1      -2.096   0.323  -1.585  1.00  0.00     0.011 A 
BRANCH  11  16
ATOM     16  N   UNL     1      -5.702   0.233  -0.696  1.00  0.00    -0.369 N 
ATOM     17  C   UNL     1      -7.278  -0.220   1.187  1.00  0.00     0.102 C 
ATOM     18  C   UNL     1      -6.605   0.847   0.298  1.00  0.00     0.132 C 
ATOM     19  N   UNL     1      -8.077  -1.224   0.456  1.00  0.00    -0.313 NA
ATOM     20  C   UNL     1      -7.636  -1.341  -0.949  1.00  0.00     0.102 C 
ATOM     21  H   UNL     1      -9.059  -0.952   0.462  1.00  0.00     0.122 HD
ATOM     22  C   UNL     1      -6.123  -1.113  -1.166  1.00  0.00     0.132 C 
ENDBRANCH  11  16
ENDBRANCH   1  10
BRANCH   6  23
ATOM     23  C   UNL     1       5.248   0.294  -0.416  1.00  0.00    -0.002 A 
ATOM     24  C   UNL     1       5.394   0.104  -1.791  1.00  0.00     0.029 A 
ATOM     25  C   UNL     1       6.231  -0.216   0.473  1.00  0.00     0.008 A 
ATOM     26  C   UNL     1       6.511  -0.563  -2.245  1.00  0.00     0.112 A 
ATOM     27  C   UNL     1       7.337  -0.874  -0.111  1.00  0.00     0.071 A 
ATOM     28  C   UNL     1       6.171  -0.125   1.889  1.00  0.00     0.011 A 
ATOM     29  N   UNL     1       7.479  -1.039  -1.437  1.00  0.00    -0.256 NA
ATOM     30  C   UNL     1       8.332  -1.383   0.714  1.00  0.00     0.029 A 
ATOM     31  C   UNL     1       7.183  -0.646   2.694  1.00  0.00     0.001 A 
ATOM     32  C   UNL     1       8.269  -1.274   2.105  1.00  0.00     0.002 A 
ENDBRANCH   6  23
TORSDOF 3
