REMARK SMILES COc1ccc(CCO[C@@H]2CCCC[C@H]2N2CC[C@@H](O)C2)cc1OC
REMARK SMILES IDX 8 1 7 2 6 3 3 4 4 5 23 6 5 7 22 8 2 9 1 10 24 11 25 12 9 13
REMARK SMILES IDX 10 14 11 15 15 16 12 17 14 18 13 19 16 20 17 21 21 22 18 23
REMARK SMILES IDX 19 24 20 25
REMARK H PARENT 20 26
REMARK Flexibility Score: inf
ROOT
ATOM      1  C   UNL     1       0.789  -1.045   1.996  1.00  0.00     0.165 C 
ENDROOT
BRANCH   1   2
ATOM      2  C   UNL     1       2.308  -1.138   1.840  1.00  0.00     0.064 C 
BRANCH   2   3
ATOM      3  C   UNL     1       2.842  -0.235   0.753  1.00  0.00    -0.042 A 
ATOM      4  C   UNL     1       3.846   1.451  -1.283  1.00  0.00     0.160 A 
ATOM      5  C   UNL     1       3.265   0.216  -1.597  1.00  0.00     0.051 A 
ATOM      6  C   UNL     1       3.879   1.861   0.059  1.00  0.00     0.160 A 
ATOM      7  C   UNL     1       2.769  -0.617  -0.589  1.00  0.00     0.008 A 
ATOM      8  C   UNL     1       3.399   1.010   1.065  1.00  0.00     0.054 A 
BRANCH   4   9
ATOM      9  O   UNL     1       4.398   2.287  -2.220  1.00  0.00    -0.493 OA
ATOM     10  C   UNL     1       4.620   1.759  -3.521  1.00  0.00     0.278 C 
ENDBRANCH   4   9
BRANCH   6  11
ATOM     11  O   UNL     1       4.402   3.036   0.538  1.00  0.00    -0.493 OA
ATOM     12  C   UNL     1       4.126   4.188  -0.247  1.00  0.00     0.278 C 
ENDBRANCH   6  11
ENDBRANCH   2   3
ENDBRANCH   1   2
BRANCH   1  13
ATOM     13  O   UNL     1       0.156  -1.678   0.881  1.00  0.00    -0.376 OA
BRANCH  13  14
ATOM     14  C   UNL     1      -1.281  -1.665   0.962  1.00  0.00     0.135 C 
ATOM     15  C   UNL     1      -1.729  -2.986   1.600  1.00  0.00     0.034 C 
ATOM     16  C   UNL     1      -1.851  -1.450  -0.480  1.00  0.00     0.085 C 
ATOM     17  C   UNL     1      -3.232  -3.179   1.473  1.00  0.00     0.003 C 
ATOM     18  C   UNL     1      -2.677  -2.656  -0.972  1.00  0.00     0.022 C 
ATOM     19  C   UNL     1      -3.694  -3.219   0.020  1.00  0.00     0.002 C 
BRANCH  16  20
ATOM     20  N   UNL     1      -2.563  -0.173  -0.711  1.00  0.00    -0.295 NA
ATOM     21  C   UNL     1      -3.744   0.103   0.099  1.00  0.00     0.087 C 
ATOM     22  C   UNL     1      -1.685   1.008  -0.600  1.00  0.00     0.116 C 
ATOM     23  C   UNL     1      -4.002   1.572  -0.193  1.00  0.00     0.048 C 
ATOM     24  C   UNL     1      -2.604   2.172  -0.203  1.00  0.00     0.129 C 
BRANCH  24  25
ATOM     25  O   UNL     1      -2.278   2.630   1.111  1.00  0.00    -0.392 OA
ATOM     26  H   UNL     1      -2.881   3.364   1.318  1.00  0.00     0.211 HD
ENDBRANCH  24  25
ENDBRANCH  16  20
ENDBRANCH  13  14
ENDBRANCH   1  13
TORSDOF 8
