REMARK SMILES CN1CCN(C(=O)OC2c3nccnc3C(=O)N2c2ccc(Cl)cn2)CC1
REMARK SMILES IDX 9 1 10 2 11 3 12 4 13 5 14 6 15 7 16 8 17 9 18 10 8 11 6 12
REMARK SMILES IDX 1 13 2 14 3 15 27 16 4 17 26 18 5 19 7 20 19 21 20 22 25 23
REMARK SMILES IDX 21 24 24 25 22 26 23 27
REMARK H PARENT
REMARK Flexibility Score: inf
ROOT
ATOM      1  C   UNL     1      -1.606   0.650   1.143  1.00  0.00     0.338 C 
ATOM      2  C   UNL     1      -1.672   2.130   1.416  1.00  0.00     0.134 A 
ATOM      3  N   UNL     1      -0.812   2.873   2.151  1.00  0.00    -0.251 NA
ATOM      4  C   UNL     1      -1.138   4.191   2.201  1.00  0.00     0.131 A 
ATOM      5  C   UNL     1      -2.254   4.724   1.552  1.00  0.00     0.132 A 
ATOM      6  N   UNL     1      -3.108   3.971   0.816  1.00  0.00    -0.247 NA
ATOM      7  C   UNL     1      -2.768   2.667   0.777  1.00  0.00     0.156 A 
ATOM      8  C   UNL     1      -3.487   1.592   0.079  1.00  0.00     0.283 C 
ATOM      9  O   UNL     1      -4.505   1.791  -0.560  1.00  0.00    -0.267 OA
ATOM     10  N   UNL     1      -2.787   0.408   0.333  1.00  0.00    -0.248 N 
ENDROOT
BRANCH   1  11
ATOM     11  O   UNL     1      -0.446   0.386   0.359  1.00  0.00    -0.419 OA
BRANCH  11  12
ATOM     12  C   UNL     1       0.610  -0.097   1.060  1.00  0.00     0.412 C 
ATOM     13  C   UNL     1       5.425  -0.704  -1.692  1.00  0.00     0.105 C 
ATOM     14  N   UNL     1       4.003  -0.960  -1.486  1.00  0.00    -0.303 NA
ATOM     15  C   UNL     1       3.741  -1.631  -0.196  1.00  0.00     0.106 C 
ATOM     16  C   UNL     1       3.214   0.274  -1.660  1.00  0.00     0.106 C 
ATOM     17  C   UNL     1       2.955  -0.803   0.838  1.00  0.00     0.138 C 
ATOM     18  C   UNL     1       1.774   0.142  -1.138  1.00  0.00     0.138 C 
ATOM     19  N   UNL     1       1.730  -0.244   0.274  1.00  0.00    -0.306 N 
ATOM     20  O   UNL     1       0.556  -0.400   2.244  1.00  0.00    -0.224 OA
ENDBRANCH  11  12
ENDBRANCH   1  11
BRANCH  10  21
ATOM     21  C   UNL     1      -3.187  -0.872  -0.099  1.00  0.00     0.138 A 
ATOM     22  C   UNL     1      -2.477  -2.018   0.269  1.00  0.00     0.049 A 
ATOM     23  N   UNL     1      -4.285  -0.972  -0.875  1.00  0.00    -0.237 NA
ATOM     24  C   UNL     1      -2.900  -3.275  -0.177  1.00  0.00     0.026 A 
ATOM     25  C   UNL     1      -4.683  -2.196  -1.299  1.00  0.00     0.134 A 
ATOM     26  C   UNL     1      -4.025  -3.367  -0.979  1.00  0.00     0.059 A 
ATOM     27  Cl  UNL     1      -4.579  -4.886  -1.547  1.00  0.00    -0.083 Cl
ENDBRANCH  10  21
TORSDOF 3
