REMARK SMILES Cc1ccc(O)c(C(=O)N[C@H]2CC[C@@H](NC(=O)c3cc(F)cnc3Oc3ccc(F)c(F)c3)CC2)c1
REMARK SMILES IDX 11 1 12 2 13 3 14 4 34 5 35 6 10 7 8 8 9 9 7 11 1 12 2 13
REMARK SMILES IDX 36 14 3 15 4 16 5 17 6 18 15 20 16 21 17 23 18 24 24 25
REMARK SMILES IDX 19 26 23 27 20 28 22 29 21 30 25 31 26 32 33 33 27 34 31 35
REMARK SMILES IDX 28 36 32 37 29 38 30 39
REMARK H PARENT 10 10 6 19 15 22
REMARK Flexibility Score: inf
ROOT
ATOM      1  C   UNL     1      -2.122   0.280  -0.326  1.00  0.00     0.082 C 
ATOM      2  C   UNL     1      -1.359   1.497   0.221  1.00  0.00     0.027 C 
ATOM      3  C   UNL     1       0.160   1.406   0.035  1.00  0.00     0.027 C 
ATOM      4  C   UNL     1       0.540   0.494  -1.133  1.00  0.00     0.082 C 
ATOM      5  C   UNL     1       0.035  -0.937  -0.894  1.00  0.00     0.027 C 
ATOM      6  C   UNL     1      -1.299  -0.999  -0.144  1.00  0.00     0.027 C 
ENDROOT
BRANCH   1   7
ATOM      7  N   UNL     1      -3.431   0.160   0.301  1.00  0.00    -0.349 N 
ATOM      8  C   UNL     1      -4.458  -0.537  -0.302  1.00  0.00     0.255 C 
ATOM      9  O   UNL     1      -4.355  -1.066  -1.407  1.00  0.00    -0.269 OA
ATOM     10  H   UNL     1      -3.600   0.662   1.163  1.00  0.00     0.164 HD
BRANCH   8  11
ATOM     11  C   UNL     1      -5.763  -0.607   0.411  1.00  0.00     0.081 A 
ATOM     12  C   UNL     1      -7.193  -0.350   3.939  1.00  0.00     0.044 C 
ATOM     13  C   UNL     1      -7.098  -0.533   2.452  1.00  0.00    -0.050 A 
ATOM     14  C   UNL     1      -5.854  -0.462   1.805  1.00  0.00     0.021 A 
ATOM     15  C   UNL     1      -8.257  -0.729   1.691  1.00  0.00     0.007 A 
ATOM     16  C   UNL     1      -8.174  -0.892   0.308  1.00  0.00     0.047 A 
ATOM     17  C   UNL     1      -6.934  -0.845  -0.325  1.00  0.00     0.128 A 
BRANCH  17  18
ATOM     18  O   UNL     1      -6.943  -1.039  -1.681  1.00  0.00    -0.507 OA
ATOM     19  H   UNL     1      -6.010  -1.144  -1.974  1.00  0.00     0.293 HD
ENDBRANCH  17  18
ENDBRANCH   8  11
ENDBRANCH   1   7
BRANCH   4  20
ATOM     20  N   UNL     1       1.976   0.494  -1.372  1.00  0.00    -0.349 N 
ATOM     21  C   UNL     1       2.602   1.525  -2.041  1.00  0.00     0.257 C 
ATOM     22  H   UNL     1       2.537  -0.214  -0.915  1.00  0.00     0.164 HD
ATOM     23  O   UNL     1       1.991   2.487  -2.494  1.00  0.00    -0.269 OA
BRANCH  21  24
ATOM     24  C   UNL     1       4.072   1.441  -2.245  1.00  0.00     0.105 A 
ATOM     25  C   UNL     1       4.944   0.659  -1.485  1.00  0.00     0.232 A 
ATOM     26  C   UNL     1       4.624   2.210  -3.279  1.00  0.00     0.060 A 
ATOM     27  N   UNL     1       6.282   0.579  -1.726  1.00  0.00    -0.218 NA
ATOM     28  C   UNL     1       5.986   2.147  -3.527  1.00  0.00     0.142 A 
ATOM     29  C   UNL     1       6.772   1.328  -2.741  1.00  0.00     0.154 A 
ATOM     30  F   UNL     1       6.527   2.864  -4.519  1.00  0.00    -0.205 F 
BRANCH  25  31
ATOM     31  O   UNL     1       4.420  -0.101  -0.445  1.00  0.00    -0.438 OA
BRANCH  31  32
ATOM     32  C   UNL     1       5.295  -0.598   0.490  1.00  0.00     0.132 A 
ATOM     33  C   UNL     1       6.113   0.235   1.255  1.00  0.00     0.089 A 
ATOM     34  C   UNL     1       5.278  -1.979   0.717  1.00  0.00     0.050 A 
ATOM     35  C   UNL     1       6.945  -0.329   2.216  1.00  0.00     0.162 A 
ATOM     36  C   UNL     1       6.118  -2.535   1.684  1.00  0.00     0.046 A 
ATOM     37  F   UNL     1       7.741   0.466   2.943  1.00  0.00    -0.204 F 
ATOM     38  C   UNL     1       6.951  -1.705   2.426  1.00  0.00     0.159 A 
ATOM     39  F   UNL     1       7.755  -2.241   3.355  1.00  0.00    -0.204 F 
ENDBRANCH  31  32
ENDBRANCH  25  31
ENDBRANCH  21  24
ENDBRANCH   4  20
TORSDOF 7
