REMARK SMILES O=C([C@@H]1C[C@H](N2CCN(c3ncccn3)CC2)CN1)N1CCC(F)(F)C1
REMARK SMILES IDX 3 1 4 2 5 3 18 4 19 5 2 7 1 8 20 9 21 10 26 11 22 12 23 13
REMARK SMILES IDX 24 14 25 15 6 16 7 17 17 18 8 19 16 20 9 21 10 22 11 23
REMARK SMILES IDX 15 24 12 25 14 26 13 27
REMARK H PARENT 19 6
REMARK Flexibility Score: inf
ROOT
ATOM      1  C   UNL     1      -2.603  -0.743   1.216  1.00  0.00     0.145 C 
ATOM      2  C   UNL     1      -1.447  -0.425   0.279  1.00  0.00     0.049 C 
ATOM      3  C   UNL     1      -0.253  -0.371   1.234  1.00  0.00     0.072 C 
ATOM      4  C   UNL     1      -0.585  -1.514   2.216  1.00  0.00     0.100 C 
ATOM      5  N   UNL     1      -2.025  -1.746   2.129  1.00  0.00    -0.304 NA
ATOM      6  H   UNL     1      -2.493  -1.758   3.031  1.00  0.00     0.123 HD
ENDROOT
BRANCH   1   7
ATOM      7  C   UNL     1      -3.856  -1.291   0.497  1.00  0.00     0.239 C 
ATOM      8  O   UNL     1      -4.264  -2.444   0.653  1.00  0.00    -0.273 OA
BRANCH   7   9
ATOM      9  N   UNL     1      -4.552  -0.420  -0.316  1.00  0.00    -0.335 N 
ATOM     10  C   UNL     1      -4.300   0.988  -0.575  1.00  0.00     0.126 C 
ATOM     11  C   UNL     1      -5.727  -0.875  -1.060  1.00  0.00     0.196 C 
ATOM     12  C   UNL     1      -5.620   1.516  -1.115  1.00  0.00     0.100 C 
ATOM     13  C   UNL     1      -6.146   0.327  -1.895  1.00  0.00     0.267 C 
ATOM     14  F   UNL     1      -5.567   0.290  -3.119  1.00  0.00    -0.205 F 
ATOM     15  F   UNL     1      -7.478   0.402  -2.070  1.00  0.00    -0.205 F 
ENDBRANCH   7   9
ENDBRANCH   1   7
BRANCH   3  16
ATOM     16  N   UNL     1       1.066  -0.462   0.582  1.00  0.00    -0.296 NA
ATOM     17  C   UNL     1       1.282   0.636  -0.391  1.00  0.00     0.106 C 
ATOM     18  C   UNL     1       2.163  -0.425   1.581  1.00  0.00     0.106 C 
ATOM     19  C   UNL     1       2.673   0.598  -1.066  1.00  0.00     0.135 C 
ATOM     20  C   UNL     1       3.574  -0.490   0.950  1.00  0.00     0.135 C 
ATOM     21  N   UNL     1       3.740   0.565  -0.057  1.00  0.00    -0.338 N 
BRANCH  21  22
ATOM     22  C   UNL     1       5.026   0.625  -0.600  1.00  0.00     0.225 A 
ATOM     23  N   UNL     1       6.059   0.148   0.119  1.00  0.00    -0.221 NA
ATOM     24  N   UNL     1       5.198   1.191  -1.809  1.00  0.00    -0.221 NA
ATOM     25  C   UNL     1       7.294   0.243  -0.410  1.00  0.00     0.117 A 
ATOM     26  C   UNL     1       6.450   1.265  -2.299  1.00  0.00     0.117 A 
ATOM     27  C   UNL     1       7.553   0.799  -1.634  1.00  0.00     0.040 A 
ENDBRANCH  21  22
ENDBRANCH   3  16
TORSDOF 4
