REMARK SMILES Nc1ncnc2c1ncn2[C@@H]1O[C@H](CO)[C@@H](O)[C@H]1O
REMARK SMILES IDX 11 1 12 2 13 3 16 4 18 5 10 6 2 7 3 8 7 9 4 10 6 11 8 12
REMARK SMILES IDX 5 13 9 14 1 15 19 18 14 20 15 21 17 23
REMARK H PARENT 1 16 1 17 19 19 15 22 17 24
REMARK Flexibility Score: inf
ROOT
ATOM      1  C   UNL     1      -0.670   0.863  -0.740  1.00  0.00     0.253 C 
ATOM      2  O   UNL     1      -1.810   0.962   0.155  1.00  0.00    -0.347 OA
ATOM      3  C   UNL     1      -2.724  -0.120  -0.152  1.00  0.00     0.178 C 
ATOM      4  C   UNL     1      -1.935  -1.132  -0.970  1.00  0.00     0.179 C 
ATOM      5  C   UNL     1      -1.017  -0.221  -1.769  1.00  0.00     0.195 C 
ENDROOT
BRANCH   1   6
ATOM      6  N   UNL     1       0.526   0.581   0.032  1.00  0.00    -0.285 N 
ATOM      7  C   UNL     1       3.994   0.196   0.325  1.00  0.00     0.155 A 
ATOM      8  N   UNL     1       4.417   0.398  -0.944  1.00  0.00    -0.217 NA
ATOM      9  C   UNL     1       2.616   0.272   0.590  1.00  0.00     0.150 A 
ATOM     10  C   UNL     1       3.499   0.691  -1.891  1.00  0.00     0.226 A 
ATOM     11  C   UNL     1       1.794   0.573  -0.482  1.00  0.00     0.167 A 
ATOM     12  N   UNL     1       1.871   0.090   1.737  1.00  0.00    -0.231 NA
ATOM     13  N   UNL     1       2.160   0.798  -1.754  1.00  0.00    -0.216 NA
ATOM     14  C   UNL     1       0.625   0.307   1.369  1.00  0.00     0.204 A 
BRANCH   7  15
ATOM     15  N   UNL     1       4.941  -0.094   1.296  1.00  0.00    -0.382 N 
ATOM     16  H   UNL     1       5.799  -0.460   0.903  1.00  0.00     0.158 HD
ATOM     17  H   UNL     1       4.560  -0.553   2.116  1.00  0.00     0.158 HD
ENDBRANCH   7  15
ENDBRANCH   1   6
BRANCH   5  18
ATOM     18  O   UNL     1      -1.761   0.297  -2.893  1.00  0.00    -0.386 OA
ATOM     19  H   UNL     1      -2.257   1.089  -2.613  1.00  0.00     0.211 HD
ENDBRANCH   5  18
BRANCH   3  20
ATOM     20  C   UNL     1      -3.287  -0.699   1.142  1.00  0.00     0.191 C 
BRANCH  20  21
ATOM     21  O   UNL     1      -3.996   0.316   1.853  1.00  0.00    -0.394 OA
ATOM     22  H   UNL     1      -3.409   1.095   1.886  1.00  0.00     0.210 HD
ENDBRANCH  20  21
ENDBRANCH   3  20
BRANCH   4  23
ATOM     23  O   UNL     1      -2.766  -1.929  -1.800  1.00  0.00    -0.387 OA
ATOM     24  H   UNL     1      -2.783  -1.495  -2.678  1.00  0.00     0.211 HD
ENDBRANCH   4  23
TORSDOF 6
