REMARK SMILES N#Cc1ccc2[nH]cc(CCCCN3CCN(c4ccc5oc(C(N)=O)cc5c4)CC3)c2c1
REMARK SMILES IDX 12 1 11 2 10 3 9 4 3 5 4 6 33 7 5 8 32 9 6 10 7 11 8 12 2 14
REMARK SMILES IDX 1 15 13 16 14 17 15 18 31 19 16 20 30 21 17 22 18 23 19 24
REMARK SMILES IDX 29 25 20 26 28 27 21 28 27 29 22 30 23 31 24 32 25 33 26 34
REMARK H PARENT 7 13 25 35 25 36
REMARK Flexibility Score: inf
ROOT
ATOM      1  C   UNL     1       2.364  -0.467   1.472  1.00  0.00     0.016 C 
ENDROOT
BRANCH   1   2
ATOM      2  C   UNL     1       2.479   0.491   0.284  1.00  0.00     0.006 C 
BRANCH   2   3
ATOM      3  C   UNL     1       3.290   1.753   0.603  1.00  0.00     0.038 C 
BRANCH   3   4
ATOM      4  C   UNL     1       4.740   1.498   0.872  1.00  0.00    -0.023 A 
ATOM      5  C   UNL     1       6.920   0.457  -2.100  1.00  0.00     0.053 A 
ATOM      6  C   UNL     1       8.110   0.352  -1.377  1.00  0.00     0.021 A 
ATOM      7  C   UNL     1       5.730   0.835  -1.459  1.00  0.00     0.030 A 
ATOM      8  C   UNL     1       8.146   0.619  -0.004  1.00  0.00     0.028 A 
ATOM      9  C   UNL     1       5.741   1.105  -0.074  1.00  0.00     0.004 A 
ATOM     10  C   UNL     1       6.948   0.991   0.615  1.00  0.00     0.046 A 
ATOM     11  N   UNL     1       6.695   1.310   1.929  1.00  0.00    -0.361 N 
ATOM     12  C   UNL     1       5.373   1.618   2.094  1.00  0.00     0.087 A 
ATOM     13  H   UNL     1       7.389   1.321   2.662  1.00  0.00     0.166 HD
BRANCH   5  14
ATOM     14  C   UNL     1       6.912   0.176  -3.506  1.00  0.00     0.099 C 
ATOM     15  N   UNL     1       6.906  -0.056  -4.644  1.00  0.00    -0.192 NA
ENDBRANCH   5  14
ENDBRANCH   3   4
ENDBRANCH   2   3
ENDBRANCH   1   2
BRANCH   1  16
ATOM     16  C   UNL     1       1.688  -1.813   1.154  1.00  0.00     0.084 C 
BRANCH  16  17
ATOM     17  N   UNL     1       0.270  -1.859   0.793  1.00  0.00    -0.300 NA
ATOM     18  C   UNL     1      -0.600  -0.995   1.608  1.00  0.00     0.106 C 
ATOM     19  C   UNL     1      -0.002  -1.666  -0.642  1.00  0.00     0.106 C 
ATOM     20  C   UNL     1      -2.102  -1.180   1.283  1.00  0.00     0.132 C 
ATOM     21  C   UNL     1      -1.497  -1.872  -0.990  1.00  0.00     0.132 C 
ATOM     22  N   UNL     1      -2.348  -0.985  -0.167  1.00  0.00    -0.369 N 
BRANCH  22  23
ATOM     23  C   UNL     1      -3.711  -0.882  -0.493  1.00  0.00     0.038 A 
ATOM     24  C   UNL     1      -4.381  -1.802  -1.318  1.00  0.00     0.030 A 
ATOM     25  C   UNL     1      -4.445   0.216   0.010  1.00  0.00     0.038 A 
ATOM     26  C   UNL     1      -5.744  -1.681  -1.636  1.00  0.00     0.050 A 
ATOM     27  C   UNL     1      -5.811   0.363  -0.292  1.00  0.00     0.023 A 
ATOM     28  C   UNL     1      -6.411  -0.588  -1.099  1.00  0.00     0.135 A 
ATOM     29  C   UNL     1      -6.832   1.299   0.024  1.00  0.00     0.065 A 
ATOM     30  O   UNL     1      -7.725  -0.292  -1.283  1.00  0.00    -0.451 OA
ATOM     31  C   UNL     1      -7.992   0.862  -0.595  1.00  0.00     0.192 A 
BRANCH  31  32
ATOM     32  C   UNL     1      -9.342   1.377  -0.639  1.00  0.00     0.284 C 
ATOM     33  N   UNL     1      -9.564   2.547   0.038  1.00  0.00    -0.363 N 
ATOM     34  O   UNL     1     -10.283   0.852  -1.227  1.00  0.00    -0.266 OA
ATOM     35  H   UNL     1      -8.853   3.044   0.550  1.00  0.00     0.160 HD
ATOM     36  H   UNL     1     -10.506   2.913   0.017  1.00  0.00     0.160 HD
ENDBRANCH  31  32
ENDBRANCH  22  23
ENDBRANCH  16  17
ENDBRANCH   1  16
TORSDOF 8
