REMARK SMILES CCCSc1ccc2[nH]c(NC(=O)OC)nc2c1
REMARK SMILES IDX 5 1 6 2 7 3 8 4 9 5 10 6 16 7 17 8 18 9 4 11 3 12 2 13 1 14
REMARK SMILES IDX 11 15 12 16 13 18 14 19 15 20
REMARK H PARENT 9 10 11 17
REMARK Flexibility Score: inf
ROOT
ATOM      1  C   UNL     1       1.784  -1.238  -0.806  1.00  0.00     0.009 A 
ATOM      2  C   UNL     1       1.489  -2.599  -0.630  1.00  0.00     0.017 A 
ATOM      3  C   UNL     1       0.197  -3.042  -0.312  1.00  0.00     0.029 A 
ATOM      4  C   UNL     1      -0.781  -2.057  -0.188  1.00  0.00     0.067 A 
ATOM      5  N   UNL     1      -2.120  -2.110   0.104  1.00  0.00    -0.324 N 
ATOM      6  C   UNL     1      -2.621  -0.831   0.094  1.00  0.00     0.210 A 
ATOM      7  N   UNL     1      -1.674   0.031  -0.189  1.00  0.00    -0.213 NA
ATOM      8  C   UNL     1      -0.530  -0.704  -0.368  1.00  0.00     0.092 A 
ATOM      9  C   UNL     1       0.768  -0.279  -0.690  1.00  0.00     0.045 A 
ATOM     10  H   UNL     1      -2.648  -2.947   0.291  1.00  0.00     0.170 HD
ENDROOT
BRANCH   1  11
ATOM     11  S   UNL     1       3.465  -0.790  -1.224  1.00  0.00    -0.126 SA
BRANCH  11  12
ATOM     12  C   UNL     1       3.739   0.611  -0.086  1.00  0.00     0.075 C 
BRANCH  12  13
ATOM     13  C   UNL     1       5.215   1.001  -0.095  1.00  0.00     0.008 C 
ATOM     14  C   UNL     1       5.479   2.167   0.847  1.00  0.00     0.005 C 
ENDBRANCH  12  13
ENDBRANCH  11  12
ENDBRANCH   1  11
BRANCH   6  15
ATOM     15  N   UNL     1      -3.943  -0.599   0.357  1.00  0.00    -0.261 N 
ATOM     16  C   UNL     1      -4.493   0.650   0.366  1.00  0.00     0.413 C 
ATOM     17  H   UNL     1      -4.576  -1.354   0.558  1.00  0.00     0.176 HD
ATOM     18  O   UNL     1      -3.960   1.728   0.162  1.00  0.00    -0.224 OA
BRANCH  16  19
ATOM     19  O   UNL     1      -5.818   0.509   0.658  1.00  0.00    -0.453 OA
ATOM     20  C   UNL     1      -6.536   1.744   0.702  1.00  0.00     0.284 C 
ENDBRANCH  16  19
ENDBRANCH   6  15
TORSDOF 5
