REMARK SMILES COc1cc2c(c(OC)c1OC)-c1ccc(OC)c(=O)cc1[C@@H](NC(C)=O)CC2
REMARK SMILES IDX 13 1 14 2 15 3 16 4 19 5 20 6 21 7 22 8 6 9 3 10 4 11 10 12
REMARK SMILES IDX 5 13 7 14 2 15 1 16 11 17 12 18 29 19 8 21 9 22 23 23 24 24
REMARK SMILES IDX 25 25 26 27 27 28 28 29 17 31 18 32
REMARK H PARENT 24 26
REMARK Flexibility Score: 90.00
ROOT
ATOM      1  C   UNL     1       0.503   0.673   0.481  1.00  0.00    -0.009 A 
ATOM      2  C   UNL     1       0.391   1.669   1.401  1.00  0.00     0.013 A 
ATOM      3  C   UNL     1       1.206   2.589   1.939  1.00  0.00     0.051 A 
ATOM      4  C   UNL     1       2.439   2.939   1.546  1.00  0.00     0.166 A 
ATOM      5  C   UNL     1       2.952   2.377   0.230  1.00  0.00     0.220 A 
ATOM      6  O   UNL     1       3.532   3.118  -0.544  1.00  0.00    -0.286 OA
ATOM      7  C   UNL     1       2.760   0.956  -0.236  1.00  0.00     0.062 A 
ATOM      8  C   UNL     1       1.625   0.221  -0.157  1.00  0.00    -0.014 A 
ENDROOT
BRANCH   1   9
ATOM      9  C   UNL     1      -0.854   0.036   0.263  1.00  0.00     0.031 A 
ATOM     10  C   UNL     1      -3.511  -1.008   0.169  1.00  0.00     0.164 A 
ATOM     11  C   UNL     1      -2.426  -1.822   0.502  1.00  0.00     0.055 A 
ATOM     12  C   UNL     1      -3.265   0.311  -0.227  1.00  0.00     0.203 A 
ATOM     13  C   UNL     1      -1.107  -1.318   0.530  1.00  0.00    -0.032 A 
ATOM     14  C   UNL     1      -1.952   0.819  -0.181  1.00  0.00     0.172 A 
BRANCH  10  15
ATOM     15  O   UNL     1      -4.810  -1.443   0.168  1.00  0.00    -0.493 OA
ATOM     16  C   UNL     1      -5.112  -2.565   0.989  1.00  0.00     0.278 C 
ENDBRANCH  10  15
BRANCH  12  17
ATOM     17  O   UNL     1      -4.257   1.194  -0.584  1.00  0.00    -0.490 OA
ATOM     18  C   UNL     1      -5.102   0.714  -1.627  1.00  0.00     0.278 C 
ENDBRANCH  12  17
BRANCH  13  19
ATOM     19  C   UNL     1       0.033  -2.289   0.642  1.00  0.00     0.039 CG0
ATOM     20  G   UNL     1       0.715  -2.270  -0.722  1.00  0.00     0.000 G0
ENDBRANCH  13  19
BRANCH  14  21
ATOM     21  O   UNL     1      -1.753   2.145  -0.515  1.00  0.00    -0.492 OA
ATOM     22  C   UNL     1      -1.494   2.265  -1.913  1.00  0.00     0.278 C 
ENDBRANCH  14  21
ENDBRANCH   1   9
BRANCH   8  23
ATOM     23  C   UNL     1       1.782  -1.170  -0.856  1.00  0.00     0.113 C 
BRANCH  23  24
ATOM     24  N   UNL     1       3.038  -1.757  -0.344  1.00  0.00    -0.350 N 
ATOM     25  C   UNL     1       3.835  -2.568  -1.119  1.00  0.00     0.217 C 
ATOM     26  H   UNL     1       3.215  -1.695   0.650  1.00  0.00     0.164 HD
ATOM     27  C   UNL     1       5.040  -3.117  -0.404  1.00  0.00     0.114 C 
ATOM     28  O   UNL     1       3.596  -2.835  -2.291  1.00  0.00    -0.275 OA
ENDBRANCH  23  24
BRANCH  23  29
ATOM     29  C   UNL     1       0.715  -2.270  -0.722  1.00  0.00     0.034 CG0
ATOM     30  G   UNL     1       0.033  -2.289   0.642  1.00  0.00     0.000 G0
ENDBRANCH  23  29
ENDBRANCH   8  23
BRANCH   4  31
ATOM     31  O   UNL     1       3.278   3.847   2.159  1.00  0.00    -0.493 OA
ATOM     32  C   UNL     1       2.815   4.522   3.319  1.00  0.00     0.278 C 
ENDBRANCH   4  31
TORSDOF 5
