REMARK SMILES CC[C@@]1(O)C(=O)OCc2c1cc1n(c2=O)Cc2cc3c(CN(C)C)c(O)ccc3nc2-1
REMARK SMILES IDX 3 1 5 2 6 3 7 4 8 5 9 6 10 7 11 8 12 9 13 10 14 11 15 12
REMARK SMILES IDX 16 13 17 14 18 15 19 16 20 17 25 18 27 19 28 20 29 21 30 22
REMARK SMILES IDX 31 23 2 24 1 25 4 26 21 28 22 29 23 30 24 31 26 32
REMARK H PARENT 4 27 26 33
REMARK Flexibility Score: inf
ROOT
ATOM      1  C   UNL     1      -5.285   0.039  -0.362  1.00  0.00     0.187 C 
ATOM      2  C   UNL     1      -6.501  -0.283   0.534  1.00  0.00     0.343 C 
ATOM      3  O   UNL     1      -7.550   0.353   0.416  1.00  0.00    -0.248 OA
ATOM      4  O   UNL     1      -6.415  -1.310   1.404  1.00  0.00    -0.458 OA
ATOM      5  C   UNL     1      -5.166  -1.873   1.855  1.00  0.00     0.275 C 
ATOM      6  C   UNL     1      -3.947  -1.258   1.266  1.00  0.00     0.062 C 
ATOM      7  C   UNL     1      -3.977  -0.373   0.253  1.00  0.00     0.009 C 
ATOM      8  C   UNL     1      -2.734   0.176  -0.277  1.00  0.00     0.036 C 
ATOM      9  C   UNL     1      -1.573  -0.220   0.251  1.00  0.00     0.071 C 
ATOM     10  N   UNL     1      -1.531  -1.133   1.287  1.00  0.00    -0.302 N 
ATOM     11  C   UNL     1      -2.642  -1.700   1.856  1.00  0.00     0.258 C 
ATOM     12  O   UNL     1      -2.603  -2.515   2.772  1.00  0.00    -0.269 OA
ATOM     13  C   UNL     1      -0.151  -1.406   1.701  1.00  0.00     0.164 C 
ATOM     14  C   UNL     1       0.640  -0.537   0.773  1.00  0.00     0.000 A 
ATOM     15  C   UNL     1       2.001  -0.347   0.654  1.00  0.00     0.018 A 
ATOM     16  C   UNL     1       2.490   0.550  -0.330  1.00  0.00     0.009 A 
ATOM     17  C   UNL     1       3.877   0.834  -0.538  1.00  0.00     0.017 A 
ATOM     18  C   UNL     1       4.226   1.700  -1.591  1.00  0.00     0.120 A 
ATOM     19  C   UNL     1       3.267   2.302  -2.391  1.00  0.00     0.049 A 
ATOM     20  C   UNL     1       1.921   2.047  -2.157  1.00  0.00     0.033 A 
ATOM     21  C   UNL     1       1.507   1.189  -1.155  1.00  0.00     0.072 A 
ATOM     22  N   UNL     1       0.180   1.004  -1.034  1.00  0.00    -0.246 NA
ATOM     23  C   UNL     1      -0.204   0.156  -0.077  1.00  0.00     0.092 A 
ENDROOT
BRANCH   1  24
ATOM     24  C   UNL     1      -5.520  -0.558  -1.767  1.00  0.00     0.049 C 
ATOM     25  C   UNL     1      -5.499  -2.080  -1.838  1.00  0.00     0.008 C 
ENDBRANCH   1  24
BRANCH   1  26
ATOM     26  O   UNL     1      -5.266   1.472  -0.517  1.00  0.00    -0.374 OA
ATOM     27  H   UNL     1      -6.200   1.748  -0.615  1.00  0.00     0.212 HD
ENDBRANCH   1  26
BRANCH  17  28
ATOM     28  C   UNL     1       4.962   0.143   0.281  1.00  0.00     0.124 C 
BRANCH  28  29
ATOM     29  N   UNL     1       6.176   0.971   0.499  1.00  0.00    -0.305 NA
ATOM     30  C   UNL     1       5.919   2.011   1.508  1.00  0.00     0.105 C 
ATOM     31  C   UNL     1       7.282   0.119   0.955  1.00  0.00     0.105 C 
ENDBRANCH  28  29
ENDBRANCH  17  28
BRANCH  18  32
ATOM     32  O   UNL     1       5.527   2.007  -1.887  1.00  0.00    -0.508 OA
ATOM     33  H   UNL     1       6.070   1.697  -1.128  1.00  0.00     0.293 HD
ENDBRANCH  18  32
TORSDOF 5
