REMARK SMILES C[C@H]1CN(C[C@H](Cc2ccccc2)C(=O)NCC(=O)O)CC[C@@]1(C)c1cccc(O)c1
REMARK SMILES IDX 6 1 5 2 4 3 1 4 2 5 3 6 23 7 22 8 24 9 21 10 25 11 26 12
REMARK SMILES IDX 31 13 27 14 29 15 28 16 30 17 7 19 8 20 9 21 13 22 10 23
REMARK SMILES IDX 12 24 11 25 14 26 15 27 16 28 17 30 18 31 19 32 20 33
REMARK H PARENT 30 18 16 29 20 34
REMARK Flexibility Score: inf
ROOT
ATOM      1  C   UNL     1      -2.313  -0.028   0.854  1.00  0.00     0.097 C 
ENDROOT
BRANCH   1   2
ATOM      2  C   UNL     1      -1.265  -0.082  -0.279  1.00  0.00     0.098 C 
BRANCH   2   3
ATOM      3  N   UNL     1      -0.085   0.791  -0.105  1.00  0.00    -0.302 NA
ATOM      4  C   UNL     1       2.707   1.831  -2.551  1.00  0.00     0.010 C 
ATOM      5  C   UNL     1       1.973   1.690  -1.210  1.00  0.00     0.010 C 
ATOM      6  C   UNL     1       0.733   0.780  -1.329  1.00  0.00     0.088 C 
ATOM      7  C   UNL     1       2.870   1.359   0.041  1.00  0.00    -0.002 C 
ATOM      8  C   UNL     1       1.899   1.366   1.257  1.00  0.00     0.027 C 
ATOM      9  C   UNL     1       3.871   2.537   0.225  1.00  0.00     0.017 C 
ATOM     10  C   UNL     1       0.715   0.414   1.069  1.00  0.00     0.085 C 
BRANCH   7  11
ATOM     11  C   UNL     1       3.681   0.038   0.064  1.00  0.00    -0.038 A 
ATOM     12  C   UNL     1       3.620  -0.948  -0.931  1.00  0.00     0.004 A 
ATOM     13  C   UNL     1       4.536  -0.232   1.158  1.00  0.00     0.050 A 
ATOM     14  C   UNL     1       4.370  -2.130  -0.849  1.00  0.00     0.004 A 
ATOM     15  C   UNL     1       5.279  -1.409   1.237  1.00  0.00     0.115 A 
ATOM     16  C   UNL     1       5.205  -2.364   0.238  1.00  0.00     0.046 A 
BRANCH  15  17
ATOM     17  O   UNL     1       6.075  -1.584   2.331  1.00  0.00    -0.508 OA
ATOM     18  H   UNL     1       6.520  -2.444   2.255  1.00  0.00     0.293 HD
ENDBRANCH  15  17
ENDBRANCH   7  11
ENDBRANCH   2   3
ENDBRANCH   1   2
BRANCH   1  19
ATOM     19  C   UNL     1      -3.574  -0.848   0.513  1.00  0.00     0.050 C 
BRANCH  19  20
ATOM     20  C   UNL     1      -3.322  -2.333   0.406  1.00  0.00    -0.047 A 
ATOM     21  C   UNL     1      -3.385  -2.980  -0.835  1.00  0.00     0.004 A 
ATOM     22  C   UNL     1      -3.017  -3.085   1.549  1.00  0.00     0.004 A 
ATOM     23  C   UNL     1      -3.140  -4.351  -0.932  1.00  0.00     0.000 A 
ATOM     24  C   UNL     1      -2.772  -4.455   1.451  1.00  0.00     0.000 A 
ATOM     25  C   UNL     1      -2.832  -5.087   0.211  1.00  0.00     0.000 A 
ENDBRANCH  19  20
ENDBRANCH   1  19
BRANCH   1  26
ATOM     26  C   UNL     1      -2.752   1.389   1.204  1.00  0.00     0.225 C 
ATOM     27  O   UNL     1      -2.801   1.770   2.373  1.00  0.00    -0.275 OA
ATOM     28  N   UNL     1      -3.167   2.177   0.156  1.00  0.00    -0.345 N 
ATOM     29  H   UNL     1      -3.341   1.743  -0.740  1.00  0.00     0.164 HD
BRANCH  28  30
ATOM     30  C   UNL     1      -3.809   3.458   0.401  1.00  0.00     0.238 C 
BRANCH  30  31
ATOM     31  C   UNL     1      -5.312   3.266   0.512  1.00  0.00     0.322 C 
ATOM     32  O   UNL     1      -5.956   2.309   0.106  1.00  0.00    -0.250 OA
BRANCH  31  33
ATOM     33  O   UNL     1      -5.936   4.324   1.066  1.00  0.00    -0.480 OA
ATOM     34  H   UNL     1      -6.880   4.062   1.085  1.00  0.00     0.296 HD
ENDBRANCH  31  33
ENDBRANCH  30  31
ENDBRANCH  28  30
ENDBRANCH   1  26
TORSDOF 10
