REMARK SMILES CN1CCC(=C2c3ccccc3CC(=O)c3sccc32)CC1
REMARK SMILES IDX 1 1 2 2 3 3 4 4 5 5 6 6 21 7 22 8 7 9 8 10 12 11 9 12 11 13
REMARK SMILES IDX 10 14 13 15 20 17 16 18 19 19 17 20 18 21 14 22 15 23
REMARK H PARENT
REMARK Flexibility Score: 80.00
ROOT
ATOM      1  C   UNL     1       4.653  -0.804  -0.987  1.00  0.00     0.105 C 
ATOM      2  N   UNL     1       3.676   0.141  -0.452  1.00  0.00    -0.306 NA
ATOM      3  C   UNL     1       3.174  -0.270   0.869  1.00  0.00     0.088 C 
ATOM      4  C   UNL     1       1.762  -0.882   0.859  1.00  0.00     0.047 C 
ATOM      5  C   UNL     1       0.731   0.073   0.267  1.00  0.00    -0.059 C 
ATOM      6  C   UNL     1      -0.592   0.063   0.588  1.00  0.00    -0.010 C 
ATOM      7  C   UNL     1       1.344   0.998  -0.783  1.00  0.00     0.047 C 
ATOM      8  C   UNL     1       2.598   0.380  -1.425  1.00  0.00     0.088 C 
ENDROOT
BRANCH   6   9
ATOM      9  C   UNL     1      -1.513   0.979  -0.139  1.00  0.00    -0.014 A 
ATOM     10  C   UNL     1      -1.505   2.357   0.113  1.00  0.00     0.009 A 
ATOM     11  C   UNL     1      -2.444   0.434  -1.045  1.00  0.00    -0.032 A 
ATOM     12  C   UNL     1      -2.401   3.196  -0.549  1.00  0.00     0.001 A 
ATOM     13  C   UNL     1      -3.342   1.289  -1.701  1.00  0.00     0.005 A 
ATOM     14  C   UNL     1      -3.316   2.662  -1.454  1.00  0.00     0.000 A 
BRANCH  11  15
ATOM     15  C   UNL     1      -2.473  -1.055  -1.307  1.00  0.00     0.118 CG0
ATOM     16  G   UNL     1      -2.920  -1.897  -0.118  1.00  0.00     0.000 G0
ENDBRANCH  11  15
ENDBRANCH   6   9
BRANCH   6  17
ATOM     17  C   UNL     1      -1.187  -0.875   1.514  1.00  0.00     0.004 A 
ATOM     18  C   UNL     1      -2.226  -1.726   1.160  1.00  0.00     0.078 A 
ATOM     19  C   UNL     1      -0.868  -0.964   2.906  1.00  0.00     0.021 A 
ATOM     20  S   UNL     1      -2.716  -2.688   2.499  1.00  0.00    -0.140 S 
ATOM     21  C   UNL     1      -1.611  -1.925   3.550  1.00  0.00     0.066 A 
BRANCH  18  22
ATOM     22  C   UNL     1      -2.920  -1.897  -0.118  1.00  0.00     0.177 CG0
ATOM     23  O   UNL     1      -3.821  -2.724  -0.294  1.00  0.00    -0.293 OA
ATOM     24  G   UNL     1      -2.473  -1.055  -1.307  1.00  0.00     0.000 G0
ENDBRANCH  18  22
ENDBRANCH   6  17
TORSDOF 0
