REMARK SMILES CN1CCN(c2ccc(-c3ccn4c(-c5ccnc6cccnc56)cnc4c3)cc2)CC1
REMARK SMILES IDX 10 1 28 2 27 3 26 4 25 5 14 6 13 7 12 8 11 9 9 10 6 11 7 12
REMARK SMILES IDX 30 13 8 14 29 15 5 16 1 17 2 18 3 19 32 20 4 21 31 22 15 23
REMARK SMILES IDX 16 24 24 25 17 26 19 27 23 28 18 29 20 30 22 31 21 32
REMARK H PARENT
REMARK Flexibility Score: inf
ROOT
ATOM      1  C   UNL     1      -0.776  -0.514  -0.354  1.00  0.00    -0.013 C 
ATOM      2  C   UNL     1      -1.304  -1.744  -0.550  1.00  0.00     0.056 C 
ATOM      3  C   UNL     1      -2.704  -1.904  -0.759  1.00  0.00     0.137 A 
ATOM      4  N   UNL     1      -3.421  -2.983  -1.000  1.00  0.00    -0.236 NA
ATOM      5  C   UNL     1      -4.708  -2.531  -1.145  1.00  0.00     0.140 A 
ATOM      6  C   UNL     1      -4.790  -1.157  -1.007  1.00  0.00     0.075 A 
ATOM      7  N   UNL     1      -3.493  -0.755  -0.739  1.00  0.00    -0.300 N 
ATOM      8  C   UNL     1      -2.969   0.520  -0.523  1.00  0.00     0.094 C 
ATOM      9  C   UNL     1      -1.648   0.664  -0.331  1.00  0.00     0.027 C 
ENDROOT
BRANCH   1  10
ATOM     10  C   UNL     1       0.683  -0.390  -0.182  1.00  0.00    -0.018 A 
ATOM     11  C   UNL     1       3.502  -0.027   0.110  1.00  0.00     0.037 A 
ATOM     12  C   UNL     1       2.935  -0.476  -1.097  1.00  0.00     0.026 A 
ATOM     13  C   UNL     1       2.607   0.219   1.165  1.00  0.00     0.026 A 
ATOM     14  C   UNL     1       1.552  -0.655  -1.245  1.00  0.00     0.011 A 
ATOM     15  C   UNL     1       1.222   0.045   1.028  1.00  0.00     0.011 A 
BRANCH  11  16
ATOM     16  N   UNL     1       4.865   0.170   0.247  1.00  0.00    -0.369 N 
ATOM     17  C   UNL     1       8.907  -0.309  -0.029  1.00  0.00     0.105 C 
ATOM     18  N   UNL     1       7.837   0.513   0.527  1.00  0.00    -0.303 NA
ATOM     19  C   UNL     1       7.018   1.128  -0.538  1.00  0.00     0.105 C 
ATOM     20  C   UNL     1       6.996  -0.281   1.455  1.00  0.00     0.105 C 
ATOM     21  C   UNL     1       5.740   0.347  -0.921  1.00  0.00     0.132 C 
ATOM     22  C   UNL     1       5.524   0.189   1.566  1.00  0.00     0.132 C 
ENDBRANCH  11  16
ENDBRANCH   1  10
BRANCH   6  23
ATOM     23  C   UNL     1      -5.946  -0.268  -1.126  1.00  0.00     0.030 A 
ATOM     24  C   UNL     1      -6.465  -0.024  -2.401  1.00  0.00     0.033 A 
ATOM     25  C   UNL     1      -6.528   0.315   0.009  1.00  0.00     0.098 A 
ATOM     26  C   UNL     1      -7.560   0.803  -2.517  1.00  0.00     0.112 A 
ATOM     27  C   UNL     1      -7.650   1.137  -0.235  1.00  0.00     0.089 A 
ATOM     28  N   UNL     1      -6.050   0.088   1.263  1.00  0.00    -0.254 NA
ATOM     29  N   UNL     1      -8.156   1.386  -1.460  1.00  0.00    -0.255 NA
ATOM     30  C   UNL     1      -8.268   1.700   0.875  1.00  0.00     0.032 A 
ATOM     31  C   UNL     1      -6.700   0.641   2.309  1.00  0.00     0.112 A 
ATOM     32  C   UNL     1      -7.804   1.455   2.167  1.00  0.00     0.022 A 
ENDBRANCH   6  23
TORSDOF 3
