REMARK SMILES CN(C)CCCOc1nn(Cc2ccccc2)c2ccccc12
REMARK SMILES IDX 6 1 5 2 4 3 2 4 1 5 3 6 7 7 8 8 9 9 23 10 10 11 18 12 22 13
REMARK SMILES IDX 19 14 21 15 20 16 11 17 12 18 13 19 17 20 14 21 16 22 15 23
REMARK H PARENT
REMARK Flexibility Score: inf
ROOT
ATOM      1  C   UNL     1      -1.867   0.395   1.237  1.00  0.00     0.233 C 
ENDROOT
BRANCH   1   2
ATOM      2  C   UNL     1      -3.391   0.485   1.141  1.00  0.00     0.057 C 
BRANCH   2   3
ATOM      3  C   UNL     1      -3.851   0.759  -0.300  1.00  0.00     0.087 C 
BRANCH   3   4
ATOM      4  N   UNL     1      -5.300   0.907  -0.511  1.00  0.00    -0.309 NA
ATOM      5  C   UNL     1      -5.865   2.056   0.188  1.00  0.00     0.104 C 
ATOM      6  C   UNL     1      -6.042  -0.313  -0.207  1.00  0.00     0.104 C 
ENDBRANCH   3   4
ENDBRANCH   2   3
ENDBRANCH   1   2
BRANCH   1   7
ATOM      7  O   UNL     1      -1.424  -0.731   0.481  1.00  0.00    -0.476 OA
BRANCH   7   8
ATOM      8  C   UNL     1      -0.082  -0.906   0.470  1.00  0.00     0.240 A 
ATOM      9  N   UNL     1       0.726  -0.102   1.160  1.00  0.00    -0.133 NA
ATOM     10  C   UNL     1       0.603  -1.922  -0.230  1.00  0.00     0.064 A 
ATOM     11  N   UNL     1       1.958  -0.594   0.885  1.00  0.00    -0.257 N 
ATOM     12  C   UNL     1       1.947  -1.699   0.062  1.00  0.00     0.073 A 
ATOM     13  C   UNL     1       0.246  -2.994  -1.068  1.00  0.00     0.016 A 
ATOM     14  C   UNL     1       2.969  -2.509  -0.453  1.00  0.00     0.029 A 
ATOM     15  C   UNL     1       1.255  -3.812  -1.588  1.00  0.00     0.001 A 
ATOM     16  C   UNL     1       2.594  -3.570  -1.285  1.00  0.00     0.002 A 
BRANCH  11  17
ATOM     17  C   UNL     1       3.125   0.024   1.504  1.00  0.00     0.180 C 
BRANCH  17  18
ATOM     18  C   UNL     1       3.913   0.869   0.533  1.00  0.00    -0.026 A 
ATOM     19  C   UNL     1       3.314   1.955  -0.125  1.00  0.00     0.005 A 
ATOM     20  C   UNL     1       5.270   0.602   0.296  1.00  0.00     0.005 A 
ATOM     21  C   UNL     1       4.049   2.742  -1.012  1.00  0.00     0.000 A 
ATOM     22  C   UNL     1       6.004   1.392  -0.591  1.00  0.00     0.000 A 
ATOM     23  C   UNL     1       5.393   2.459  -1.246  1.00  0.00     0.000 A 
ENDBRANCH  17  18
ENDBRANCH  11  17
ENDBRANCH   7   8
ENDBRANCH   1   7
TORSDOF 7
