REMARK SMILES CN(C)CC(Oc1ccccc1)Oc1ccccc1
REMARK SMILES IDX 5 1 4 2 2 3 1 4 3 5 6 6 7 7 8 8 12 9 9 10 11 11 10 12 13 13
REMARK SMILES IDX 14 14 15 15 19 16 16 17 18 18 17 19
REMARK H PARENT
REMARK Flexibility Score: inf
ROOT
ATOM      1  C   UNL     1      -0.222   0.499   0.517  1.00  0.00     0.377 C 
ENDROOT
BRANCH   1   2
ATOM      2  C   UNL     1      -1.027   1.801   0.825  1.00  0.00     0.174 C 
BRANCH   2   3
ATOM      3  N   UNL     1      -0.652   3.070   0.156  1.00  0.00    -0.302 NA
ATOM      4  C   UNL     1      -0.864   3.030  -1.287  1.00  0.00     0.105 C 
ATOM      5  C   UNL     1       0.711   3.490   0.471  1.00  0.00     0.105 C 
ENDBRANCH   2   3
ENDBRANCH   1   2
BRANCH   1   6
ATOM      6  O   UNL     1       1.034   0.603   1.217  1.00  0.00    -0.454 OA
BRANCH   6   7
ATOM      7  C   UNL     1       2.051  -0.228   0.842  1.00  0.00     0.124 A 
ATOM      8  C   UNL     1       3.296   0.097   1.390  1.00  0.00     0.046 A 
ATOM      9  C   UNL     1       1.947  -1.337   0.003  1.00  0.00     0.046 A 
ATOM     10  C   UNL     1       4.427  -0.664   1.091  1.00  0.00     0.004 A 
ATOM     11  C   UNL     1       3.079  -2.102  -0.296  1.00  0.00     0.004 A 
ATOM     12  C   UNL     1       4.319  -1.764   0.245  1.00  0.00     0.000 A 
ENDBRANCH   6   7
ENDBRANCH   1   6
BRANCH   1  13
ATOM     13  O   UNL     1      -0.961  -0.624   1.023  1.00  0.00    -0.454 OA
BRANCH  13  14
ATOM     14  C   UNL     1      -1.858  -1.253   0.207  1.00  0.00     0.124 A 
ATOM     15  C   UNL     1      -2.355  -2.455   0.719  1.00  0.00     0.046 A 
ATOM     16  C   UNL     1      -2.308  -0.806  -1.035  1.00  0.00     0.046 A 
ATOM     17  C   UNL     1      -3.279  -3.211  -0.003  1.00  0.00     0.004 A 
ATOM     18  C   UNL     1      -3.235  -1.562  -1.760  1.00  0.00     0.004 A 
ATOM     19  C   UNL     1      -3.719  -2.764  -1.245  1.00  0.00     0.000 A 
ENDBRANCH  13  14
ENDBRANCH   1  13
TORSDOF 6
