REMARK SMILES NC(=O)c1ccn(-c2cnc(NC[C@]3(c4ncccc4F)C[C@H](F)C3)nc2)c1
REMARK SMILES IDX 12 1 11 3 8 4 9 5 27 6 10 7 26 8 7 9 4 10 28 11 5 12 6 13
REMARK SMILES IDX 2 14 1 15 3 18 13 19 14 20 22 21 25 22 23 23 24 24 15 25
REMARK SMILES IDX 16 26 20 27 17 28 19 29 21 30 18 31
REMARK H PARENT 12 2 1 16 1 17
REMARK Flexibility Score: inf
ROOT
ATOM      1  N   UNL     1      -0.896  -0.579   1.614  1.00  0.00    -0.353 N 
ATOM      2  H   UNL     1      -0.708  -0.593   2.610  1.00  0.00     0.163 HD
ENDROOT
BRANCH   1   3
ATOM      3  C   UNL     1       0.331  -0.404   0.997  1.00  0.00     0.222 A 
ATOM      4  C   UNL     1       2.804  -0.142  -0.127  1.00  0.00     0.082 A 
ATOM      5  C   UNL     1       1.640   0.071  -0.830  1.00  0.00     0.143 A 
ATOM      6  C   UNL     1       2.617  -0.492   1.191  1.00  0.00     0.143 A 
ATOM      7  N   UNL     1       0.407  -0.051  -0.291  1.00  0.00    -0.219 NA
ATOM      8  N   UNL     1       1.401  -0.625   1.769  1.00  0.00    -0.219 NA
BRANCH   4   9
ATOM      9  N   UNL     1       4.088  -0.012  -0.713  1.00  0.00    -0.320 N 
ATOM     10  C   UNL     1       6.343   0.009  -0.978  1.00  0.00     0.057 A 
ATOM     11  C   UNL     1       5.306  -0.214  -0.084  1.00  0.00     0.105 A 
ATOM     12  C   UNL     1       5.724   0.370  -2.204  1.00  0.00     0.033 A 
ATOM     13  C   UNL     1       4.360   0.344  -2.018  1.00  0.00     0.092 A 
BRANCH  10  14
ATOM     14  C   UNL     1       7.779  -0.084  -0.740  1.00  0.00     0.250 C 
ATOM     15  N   UNL     1       8.160  -0.579   0.474  1.00  0.00    -0.366 N 
ATOM     16  H   UNL     1       9.149  -0.747   0.596  1.00  0.00     0.159 HD
ATOM     17  H   UNL     1       7.514  -1.032   1.098  1.00  0.00     0.159 HD
ATOM     18  O   UNL     1       8.619   0.239  -1.572  1.00  0.00    -0.269 OA
ENDBRANCH  10  14
ENDBRANCH   4   9
ENDBRANCH   1   3
BRANCH   1  19
ATOM     19  C   UNL     1      -1.969   0.312   1.191  1.00  0.00     0.129 C 
BRANCH  19  20
ATOM     20  C   UNL     1      -3.136  -0.410   0.485  1.00  0.00     0.038 C 
ATOM     21  C   UNL     1      -3.673  -1.706   1.200  1.00  0.00     0.053 C 
ATOM     22  C   UNL     1      -2.733  -1.384  -0.687  1.00  0.00     0.053 C 
ATOM     23  C   UNL     1      -3.843  -2.337  -0.200  1.00  0.00     0.168 C 
ATOM     24  F   UNL     1      -3.576  -3.660  -0.286  1.00  0.00    -0.247 F 
BRANCH  20  25
ATOM     25  C   UNL     1      -4.258   0.689   0.156  1.00  0.00     0.084 A 
ATOM     26  N   UNL     1      -4.367   1.024  -1.158  1.00  0.00    -0.258 NA
ATOM     27  C   UNL     1      -5.083   1.284   1.113  1.00  0.00     0.145 A 
ATOM     28  C   UNL     1      -5.297   1.944  -1.507  1.00  0.00     0.111 A 
ATOM     29  C   UNL     1      -6.031   2.227   0.737  1.00  0.00     0.043 A 
ATOM     30  F   UNL     1      -4.962   0.955   2.407  1.00  0.00    -0.205 F 
ATOM     31  C   UNL     1      -6.143   2.566  -0.605  1.00  0.00     0.023 A 
ENDBRANCH  20  25
ENDBRANCH  19  20
ENDBRANCH   1  19
TORSDOF 6
