REMARK SMILES CCC(=O)N1CC[C@H](Nc2ncnc3c2CN(c2cnc(OC)c(C(F)(F)F)c2)CC3)C1
REMARK SMILES IDX 9 1 8 3 5 4 6 5 32 6 7 7 3 8 4 9 2 10 1 11 10 12 11 13 15 14
REMARK SMILES IDX 12 15 14 16 16 17 13 18 31 19 17 20 30 21 18 22 19 23 29 24
REMARK SMILES IDX 20 25 24 26 21 27 25 28 26 29 27 30 28 31 22 32 23 33
REMARK H PARENT 9 2
REMARK Flexibility Score: inf
ROOT
ATOM      1  N   UNL     1       1.501  -0.887   0.337  1.00  0.00    -0.365 N 
ATOM      2  H   UNL     1       1.050  -0.637   1.215  1.00  0.00     0.162 HD
ENDROOT
BRANCH   1   3
ATOM      3  C   UNL     1       2.961  -0.883   0.481  1.00  0.00     0.102 C 
ATOM      4  N   UNL     1       4.778   0.642   0.650  1.00  0.00    -0.341 N 
ATOM      5  C   UNL     1       5.037  -0.210  -0.498  1.00  0.00     0.121 C 
ATOM      6  C   UNL     1       3.453   0.390   1.191  1.00  0.00     0.144 C 
ATOM      7  C   UNL     1       3.676  -0.777  -0.871  1.00  0.00     0.048 C 
BRANCH   4   8
ATOM      8  C   UNL     1       5.636   1.526   1.258  1.00  0.00     0.222 C 
ATOM      9  O   UNL     1       5.313   2.157   2.265  1.00  0.00    -0.275 OA
BRANCH   8  10
ATOM     10  C   UNL     1       6.997   1.730   0.625  1.00  0.00     0.097 C 
ATOM     11  C   UNL     1       6.946   2.824  -0.425  1.00  0.00     0.014 C 
ENDBRANCH   8  10
ENDBRANCH   4   8
ENDBRANCH   1   3
BRANCH   1  12
ATOM     12  C   UNL     1       0.932  -2.094  -0.118  1.00  0.00     0.134 A 
ATOM     13  N   UNL     1       1.723  -3.166  -0.288  1.00  0.00    -0.219 NA
ATOM     14  C   UNL     1      -0.435  -2.142  -0.387  1.00  0.00     0.035 A 
ATOM     15  C   UNL     1       1.140  -4.295  -0.711  1.00  0.00     0.224 A 
ATOM     16  C   UNL     1      -0.932  -3.364  -0.813  1.00  0.00     0.053 A 
ATOM     17  C   UNL     1      -1.313  -0.929  -0.245  1.00  0.00     0.158 C 
ATOM     18  N   UNL     1      -0.159  -4.456  -0.980  1.00  0.00    -0.241 NA
ATOM     19  C   UNL     1      -2.384  -3.512  -1.161  1.00  0.00     0.078 C 
ATOM     20  N   UNL     1      -2.739  -1.163  -0.581  1.00  0.00    -0.365 N 
ATOM     21  C   UNL     1      -3.229  -2.530  -0.358  1.00  0.00     0.123 C 
BRANCH  20  22
ATOM     22  C   UNL     1      -3.584  -0.083  -0.289  1.00  0.00     0.056 A 
ATOM     23  C   UNL     1      -3.291   1.220  -0.708  1.00  0.00     0.141 A 
ATOM     24  C   UNL     1      -4.788  -0.210   0.413  1.00  0.00     0.046 A 
ATOM     25  N   UNL     1      -4.045   2.321  -0.466  1.00  0.00    -0.219 NA
ATOM     26  C   UNL     1      -5.608   0.903   0.681  1.00  0.00     0.120 A 
ATOM     27  C   UNL     1      -5.189   2.139   0.224  1.00  0.00     0.225 A 
BRANCH  26  28
ATOM     28  C   UNL     1      -6.889   0.772   1.438  1.00  0.00     0.421 C 
ATOM     29  F   UNL     1      -7.153  -0.518   1.806  1.00  0.00    -0.166 F 
ATOM     30  F   UNL     1      -6.903   1.480   2.602  1.00  0.00    -0.166 F 
ATOM     31  F   UNL     1      -7.982   1.170   0.730  1.00  0.00    -0.166 F 
ENDBRANCH  26  28
BRANCH  27  32
ATOM     32  O   UNL     1      -5.988   3.228   0.494  1.00  0.00    -0.481 OA
ATOM     33  C   UNL     1      -5.481   4.452  -0.030  1.00  0.00     0.280 C 
ENDBRANCH  27  32
ENDBRANCH  20  22
ENDBRANCH   1  12
TORSDOF 7
