REMARK SMILES O=C(Nc1cnn2ccc(N3CCC[C@@H]3c3cc(F)ccc3F)nc12)N1CC[C@H](O)C1
REMARK SMILES IDX 4 1 5 2 6 3 7 4 8 5 9 6 10 7 24 8 25 9 3 10 1 11 2 12 26 14
REMARK SMILES IDX 27 15 31 16 28 17 29 18 30 19 11 21 12 22 15 23 13 24 14 25
REMARK SMILES IDX 16 26 17 27 22 28 18 29 21 30 23 31 19 32 20 33
REMARK H PARENT 3 13 30 20
REMARK Flexibility Score: inf
ROOT
ATOM      1  C   UNL     1       1.961   1.611   1.255  1.00  0.00     0.108 A 
ATOM      2  C   UNL     1       2.162   2.394   2.408  1.00  0.00     0.164 A 
ATOM      3  N   UNL     1       1.046   2.563   3.121  1.00  0.00    -0.173 NA
ATOM      4  N   UNL     1       0.108   1.870   2.433  1.00  0.00    -0.220 N 
ATOM      5  C   UNL     1      -1.219   1.697   2.764  1.00  0.00     0.119 C 
ATOM      6  C   UNL     1      -2.012   0.953   1.986  1.00  0.00     0.067 C 
ATOM      7  C   UNL     1      -1.412   0.344   0.737  1.00  0.00     0.133 C 
ATOM      8  N   UNL     1      -0.149   0.543   0.422  1.00  0.00    -0.209 NA
ATOM      9  C   UNL     1       0.621   1.287   1.277  1.00  0.00     0.181 A 
ENDROOT
BRANCH   1  10
ATOM     10  N   UNL     1       2.825   1.183   0.260  1.00  0.00    -0.303 N 
ATOM     11  O   UNL     1       4.751   2.178   1.029  1.00  0.00    -0.248 OA
ATOM     12  C   UNL     1       4.166   1.464   0.217  1.00  0.00     0.322 C 
ATOM     13  H   UNL     1       2.388   0.642  -0.468  1.00  0.00     0.172 HD
BRANCH  12  14
ATOM     14  N   UNL     1       4.851   0.866  -0.816  1.00  0.00    -0.322 N 
ATOM     15  C   UNL     1       4.344  -0.030  -1.842  1.00  0.00     0.124 C 
ATOM     16  C   UNL     1       6.274   1.119  -0.995  1.00  0.00     0.153 C 
ATOM     17  C   UNL     1       5.587  -0.674  -2.433  1.00  0.00     0.055 C 
ATOM     18  C   UNL     1       6.649   0.415  -2.300  1.00  0.00     0.135 C 
BRANCH  18  19
ATOM     19  O   UNL     1       7.949  -0.149  -2.278  1.00  0.00    -0.391 OA
ATOM     20  H   UNL     1       8.047  -0.652  -1.451  1.00  0.00     0.211 HD
ENDBRANCH  18  19
ENDBRANCH  12  14
ENDBRANCH   1  10
BRANCH   7  21
ATOM     21  N   UNL     1      -2.203  -0.435  -0.111  1.00  0.00    -0.349 N 
ATOM     22  C   UNL     1      -1.654  -0.977  -1.361  1.00  0.00     0.119 C 
ATOM     23  C   UNL     1      -3.240  -1.353   0.403  1.00  0.00     0.117 C 
ATOM     24  C   UNL     1      -2.008  -2.453  -1.328  1.00  0.00     0.024 C 
ATOM     25  C   UNL     1      -3.371  -2.444  -0.672  1.00  0.00     0.032 C 
BRANCH  23  26
ATOM     26  C   UNL     1      -4.581  -0.699   0.642  1.00  0.00     0.013 A 
ATOM     27  C   UNL     1      -5.035   0.404  -0.095  1.00  0.00     0.048 A 
ATOM     28  C   UNL     1      -5.445  -1.256   1.591  1.00  0.00     0.128 A 
ATOM     29  C   UNL     1      -6.305   0.922   0.136  1.00  0.00     0.123 A 
ATOM     30  C   UNL     1      -6.714  -0.738   1.821  1.00  0.00     0.042 A 
ATOM     31  F   UNL     1      -5.048  -2.325   2.296  1.00  0.00    -0.207 F 
ATOM     32  F   UNL     1      -6.729   1.967  -0.580  1.00  0.00    -0.207 F 
ATOM     33  C   UNL     1      -7.151   0.359   1.083  1.00  0.00     0.042 A 
ENDBRANCH  23  26
ENDBRANCH   7  21
TORSDOF 5
