REMARK SMILES Cc1onc(-c2ccccc2)c1C(=O)N[C@@H]1C(=O)N2[C@@H]1SC(C)(C)[C@@H]2C(=O)O
REMARK SMILES IDX 16 1 17 2 18 3 19 4 20 5 21 6 22 7 23 8 24 9 25 10 15 11
REMARK SMILES IDX 13 12 14 13 12 15 1 16 2 17 3 18 4 19 5 20 6 21 7 22 11 23
REMARK SMILES IDX 8 24 10 25 9 26 26 27 27 28 28 29
REMARK H PARENT 15 14 28 30
REMARK Flexibility Score: inf
ROOT
ATOM      1  C   UNL     1       0.632   0.720  -1.215  1.00  0.00     0.205 C 
ATOM      2  C   UNL     1       1.736   0.129  -2.116  1.00  0.00     0.250 C 
ATOM      3  O   UNL     1       1.769  -0.578  -3.097  1.00  0.00    -0.272 OA
ATOM      4  N   UNL     1       2.726   0.554  -1.273  1.00  0.00    -0.311 N 
ATOM      5  C   UNL     1       1.784   0.941  -0.205  1.00  0.00     0.176 C 
ATOM      6  S   UNL     1       2.067  -0.326   1.094  1.00  0.00    -0.125 SA
ATOM      7  C   UNL     1       3.853  -0.487   0.608  1.00  0.00     0.044 C 
ATOM      8  C   UNL     1       4.357  -1.857   1.069  1.00  0.00     0.026 C 
ATOM      9  C   UNL     1       4.638   0.632   1.306  1.00  0.00     0.026 C 
ATOM     10  C   UNL     1       3.811  -0.370  -0.930  1.00  0.00     0.211 C 
ENDROOT
BRANCH   1  11
ATOM     11  N   UNL     1      -0.458  -0.214  -0.830  1.00  0.00    -0.337 N 
ATOM     12  C   UNL     1      -1.402   0.155   0.104  1.00  0.00     0.257 C 
ATOM     13  O   UNL     1      -1.383   1.267   0.622  1.00  0.00    -0.269 OA
ATOM     14  H   UNL     1      -0.572  -1.083  -1.337  1.00  0.00     0.164 HD
BRANCH  12  15
ATOM     15  C   UNL     1      -2.417  -0.835   0.389  1.00  0.00     0.110 A 
ATOM     16  C   UNL     1      -1.121  -3.139   0.308  1.00  0.00     0.092 C 
ATOM     17  C   UNL     1      -2.255  -2.206   0.462  1.00  0.00     0.147 A 
ATOM     18  O   UNL     1      -3.438  -2.782   0.789  1.00  0.00    -0.360 OA
ATOM     19  N   UNL     1      -4.394  -1.812   0.963  1.00  0.00    -0.079 NA
ATOM     20  C   UNL     1      -3.793  -0.633   0.732  1.00  0.00     0.126 A 
BRANCH  20  21
ATOM     21  C   UNL     1      -4.562   0.609   0.828  1.00  0.00     0.004 A 
ATOM     22  C   UNL     1      -4.420   1.630  -0.122  1.00  0.00     0.010 A 
ATOM     23  C   UNL     1      -5.485   0.781   1.871  1.00  0.00     0.010 A 
ATOM     24  C   UNL     1      -5.172   2.803  -0.020  1.00  0.00     0.001 A 
ATOM     25  C   UNL     1      -6.237   1.954   1.971  1.00  0.00     0.001 A 
ATOM     26  C   UNL     1      -6.079   2.965   1.026  1.00  0.00     0.000 A 
ENDBRANCH  20  21
ENDBRANCH  12  15
ENDBRANCH   1  11
BRANCH  10  27
ATOM     27  C   UNL     1       5.153   0.027  -1.538  1.00  0.00     0.327 C 
ATOM     28  O   UNL     1       6.196  -0.598  -1.414  1.00  0.00    -0.250 OA
BRANCH  27  29
ATOM     29  O   UNL     1       5.141   1.176  -2.242  1.00  0.00    -0.480 OA
ATOM     30  H   UNL     1       6.054   1.270  -2.585  1.00  0.00     0.296 HD
ENDBRANCH  27  29
ENDBRANCH  10  27
TORSDOF 5
