REMARK SMILES CCCN1CCCC[C@H]1C(=O)Nc1c(C)cccc1C
REMARK SMILES IDX 4 1 5 2 6 3 7 4 8 5 9 6 3 7 2 8 1 9 10 10 11 11 12 12 13 14
REMARK SMILES IDX 14 15 19 16 15 17 16 18 18 19 20 20 17 21
REMARK H PARENT 12 13
REMARK Flexibility Score: inf
ROOT
ATOM      1  N   UNL     1      -1.693  -0.475  -0.592  1.00  0.00    -0.292 NA
ATOM      2  C   UNL     1      -2.907  -1.208  -0.990  1.00  0.00     0.085 C 
ATOM      3  C   UNL     1      -2.616  -2.685  -1.248  1.00  0.00     0.016 C 
ATOM      4  C   UNL     1      -2.012  -3.340  -0.015  1.00  0.00     0.003 C 
ATOM      5  C   UNL     1      -0.785  -2.564   0.440  1.00  0.00     0.029 C 
ATOM      6  C   UNL     1      -1.089  -1.066   0.640  1.00  0.00     0.147 C 
ENDROOT
BRANCH   1   7
ATOM      7  C   UNL     1      -1.979   0.975  -0.475  1.00  0.00     0.085 C 
BRANCH   7   8
ATOM      8  C   UNL     1      -2.888   1.424   0.678  1.00  0.00     0.012 C 
ATOM      9  C   UNL     1      -3.115   2.929   0.641  1.00  0.00     0.005 C 
ENDBRANCH   7   8
ENDBRANCH   1   7
BRANCH   6  10
ATOM     10  C   UNL     1       0.254  -0.386   1.002  1.00  0.00     0.241 C 
ATOM     11  O   UNL     1       0.593  -0.269   2.176  1.00  0.00    -0.273 OA
ATOM     12  N   UNL     1       1.009  -0.080  -0.118  1.00  0.00    -0.324 N 
ATOM     13  H   UNL     1       0.601  -0.449  -0.970  1.00  0.00     0.170 HD
BRANCH  12  14
ATOM     14  C   UNL     1       2.308   0.466  -0.208  1.00  0.00     0.047 A 
ATOM     15  C   UNL     1       2.852   1.390   0.709  1.00  0.00    -0.027 A 
ATOM     16  C   UNL     1       3.082   0.075  -1.333  1.00  0.00    -0.027 A 
ATOM     17  C   UNL     1       2.093   2.024   1.843  1.00  0.00     0.046 C 
ATOM     18  C   UNL     1       4.187   1.815   0.547  1.00  0.00     0.005 A 
ATOM     19  C   UNL     1       4.398   0.543  -1.478  1.00  0.00     0.005 A 
ATOM     20  C   UNL     1       2.555  -0.871  -2.383  1.00  0.00     0.046 C 
ATOM     21  C   UNL     1       4.954   1.395  -0.533  1.00  0.00     0.001 A 
ENDBRANCH  12  14
ENDBRANCH   6  10
TORSDOF 4
