REMARK SMILES O=C1CN=C(c2ccccc2)c2cc([N+](=O)[O-])ccc2N1
REMARK SMILES IDX 12 1 13 2 14 3 18 4 19 5 20 6 21 7 1 8 2 9 5 12 4 13 6 14
REMARK SMILES IDX 7 15 11 16 8 17 10 18 9 19 3 20 15 22 16 23 17 24
REMARK H PARENT 21 11
REMARK Flexibility Score: 90.00
ROOT
ATOM      1  C   UNL     1      -0.752  -0.316  -0.266  1.00  0.00     0.031 A 
ATOM      2  C   UNL     1      -0.831   0.871  -1.017  1.00  0.00     0.098 A 
ATOM      3  C   UNL     1      -2.052   1.548  -1.125  1.00  0.00     0.270 A 
ATOM      4  C   UNL     1      -3.192   1.059  -0.481  1.00  0.00     0.088 A 
ATOM      5  C   UNL     1      -3.115  -0.134   0.242  1.00  0.00     0.034 A 
ATOM      6  C   UNL     1      -1.912  -0.852   0.319  1.00  0.00     0.051 A 
ENDROOT
BRANCH   6   7
ATOM      7  N   UNL     1      -1.966  -2.076   0.999  1.00  0.00    -0.324 N 
ATOM      8  O   UNL     1      -1.389  -4.200   1.442  1.00  0.00    -0.273 OA
ATOM      9  C   UNL     1      -1.180  -3.179   0.785  1.00  0.00     0.246 CG0
ATOM     10  G   UNL     1      -0.169  -3.125  -0.347  1.00  0.00     0.000 G0
ATOM     11  H   UNL     1      -2.752  -2.277   1.606  1.00  0.00     0.170 HD
ENDBRANCH   6   7
BRANCH   1  12
ATOM     12  C   UNL     1       0.602  -0.902  -0.019  1.00  0.00     0.075 C 
ATOM     13  N   UNL     1       0.881  -2.159  -0.054  1.00  0.00    -0.274 NA
BRANCH  12  14
ATOM     14  C   UNL     1       1.730   0.027   0.310  1.00  0.00     0.000 A 
ATOM     15  C   UNL     1       2.993  -0.220  -0.239  1.00  0.00     0.010 A 
ATOM     16  C   UNL     1       1.546   1.113   1.175  1.00  0.00     0.010 A 
ATOM     17  C   UNL     1       4.059   0.633   0.050  1.00  0.00     0.001 A 
ATOM     18  C   UNL     1       2.615   1.963   1.461  1.00  0.00     0.001 A 
ATOM     19  C   UNL     1       3.868   1.726   0.895  1.00  0.00     0.000 A 
ENDBRANCH  12  14
BRANCH  13  20
ATOM     20  C   UNL     1      -0.169  -3.125  -0.347  1.00  0.00     0.243 CG0
ATOM     21  G   UNL     1      -1.180  -3.179   0.785  1.00  0.00     0.000 G0
ENDBRANCH  13  20
ENDBRANCH   1  12
BRANCH   3  22
ATOM     22  N   UNL     1      -2.130   2.793  -1.900  1.00  0.00     0.062 N 
ATOM     23  O   UNL     1      -1.095   3.193  -2.450  1.00  0.00    -0.258 OA
ATOM     24  O   UNL     1      -3.226   3.368  -1.954  1.00  0.00    -0.258 OA
ENDBRANCH   3  22
TORSDOF 2
