REMARK SMILES c1cnc(N2CCN(Cc3ccc4c(c3)OCO4)CC2)nc1
REMARK SMILES IDX 5 1 6 2 7 3 8 4 19 5 20 6 4 7 1 8 2 9 22 10 3 11 21 12 9 13
REMARK SMILES IDX 10 14 11 15 15 16 12 17 14 18 13 19 16 20 18 21 17 22
REMARK H PARENT
REMARK Flexibility Score: inf
ROOT
ATOM      1  N   UNL     1      -2.530  -0.152  -0.164  1.00  0.00    -0.338 N 
ATOM      2  C   UNL     1      -1.555  -0.781   0.725  1.00  0.00     0.135 C 
ATOM      3  C   UNL     1      -0.125  -0.464   0.233  1.00  0.00     0.106 C 
ATOM      4  N   UNL     1       0.204   0.983   0.187  1.00  0.00    -0.296 NA
ATOM      5  C   UNL     1      -1.016   1.805   0.033  1.00  0.00     0.106 C 
ATOM      6  C   UNL     1      -2.185   1.149  -0.738  1.00  0.00     0.135 C 
ENDROOT
BRANCH   1   7
ATOM      7  C   UNL     1      -3.859  -0.479  -0.010  1.00  0.00     0.225 A 
ATOM      8  C   UNL     1      -6.492  -1.162   0.260  1.00  0.00     0.040 A 
ATOM      9  C   UNL     1      -6.072  -0.160  -0.573  1.00  0.00     0.117 A 
ATOM     10  C   UNL     1      -5.491  -1.798   0.946  1.00  0.00     0.117 A 
ATOM     11  N   UNL     1      -4.781   0.193  -0.723  1.00  0.00    -0.221 NA
ATOM     12  N   UNL     1      -4.189  -1.479   0.827  1.00  0.00    -0.221 NA
ENDBRANCH   1   7
BRANCH   4  13
ATOM     13  C   UNL     1       1.187   1.277  -0.867  1.00  0.00     0.120 C 
BRANCH  13  14
ATOM     14  C   UNL     1       2.534   0.625  -0.626  1.00  0.00    -0.030 A 
ATOM     15  C   UNL     1       3.056  -0.304  -1.556  1.00  0.00     0.009 A 
ATOM     16  C   UNL     1       3.278   0.947   0.523  1.00  0.00     0.055 A 
ATOM     17  C   UNL     1       4.300  -0.909  -1.347  1.00  0.00     0.051 A 
ATOM     18  C   UNL     1       4.500   0.335   0.701  1.00  0.00     0.166 A 
ATOM     19  C   UNL     1       4.997  -0.568  -0.209  1.00  0.00     0.165 A 
ATOM     20  O   UNL     1       5.342   0.530   1.751  1.00  0.00    -0.454 OA
ATOM     21  O   UNL     1       6.214  -1.054   0.154  1.00  0.00    -0.454 OA
ATOM     22  C   UNL     1       6.423  -0.357   1.399  1.00  0.00     0.468 C 
ENDBRANCH  13  14
ENDBRANCH   4  13
TORSDOF 3
