REMARK SMILES CCC[C@@H]1C[C@@H](C(=O)N[C@@H]([C@H]2O[C@H](SC)[C@H](O)[C@@H](O)[C@H]2O)[C@H](C)Cl)N(C)C1
REMARK SMILES IDX 7 1 8 2 9 3 6 5 4 6 5 7 27 8 25 9 26 10 3 11 2 12 1 13 10 14
REMARK SMILES IDX 11 15 12 16 20 17 13 18 18 19 16 20 21 21 14 23 15 24 19 25
REMARK SMILES IDX 17 27 22 29 23 30 24 31
REMARK H PARENT 9 4 21 22 19 26 17 28
REMARK Flexibility Score: inf
ROOT
ATOM      1  C   UNL     1      -0.495   1.182  -1.041  1.00  0.00     0.237 C 
ATOM      2  O   UNL     1      -0.350   2.377  -1.284  1.00  0.00    -0.273 OA
ATOM      3  N   UNL     1       0.586   0.311  -1.048  1.00  0.00    -0.348 N 
ATOM      4  H   UNL     1       0.493  -0.517  -0.470  1.00  0.00     0.163 HD
ENDROOT
BRANCH   1   5
ATOM      5  C   UNL     1      -1.826   0.523  -0.617  1.00  0.00     0.146 C 
ATOM      6  C   UNL     1      -3.582  -1.045  -1.272  1.00  0.00     0.005 C 
ATOM      7  C   UNL     1      -2.057  -0.892  -1.154  1.00  0.00     0.034 C 
ATOM      8  C   UNL     1      -4.129   0.281  -0.742  1.00  0.00     0.088 C 
ATOM      9  N   UNL     1      -3.063   1.272  -0.971  1.00  0.00    -0.295 NA
ATOM     10  C   UNL     1      -3.091   1.753  -2.356  1.00  0.00     0.106 C 
BRANCH   6  11
ATOM     11  C   UNL     1      -4.093  -2.295  -0.546  1.00  0.00     0.005 C 
BRANCH  11  12
ATOM     12  C   UNL     1      -5.570  -2.627  -0.782  1.00  0.00    -0.003 C 
ATOM     13  C   UNL     1      -6.537  -1.841   0.089  1.00  0.00     0.004 C 
ENDBRANCH  11  12
ENDBRANCH   6  11
ENDBRANCH   1   5
BRANCH   3  14
ATOM     14  C   UNL     1       1.974   0.822  -1.176  1.00  0.00     0.131 C 
BRANCH  14  15
ATOM     15  C   UNL     1       2.439   1.274   0.238  1.00  0.00     0.175 C 
ATOM     16  O   UNL     1       2.350   0.155   1.145  1.00  0.00    -0.357 OA
ATOM     17  C   UNL     1       3.781   2.012   0.314  1.00  0.00     0.177 C 
ATOM     18  C   UNL     1       3.211   0.228   2.284  1.00  0.00     0.207 C 
ATOM     19  C   UNL     1       3.913   2.627   1.717  1.00  0.00     0.178 C 
ATOM     20  C   UNL     1       3.421   1.667   2.821  1.00  0.00     0.185 C 
BRANCH  17  21
ATOM     21  O   UNL     1       4.888   1.128   0.114  1.00  0.00    -0.388 OA
ATOM     22  H   UNL     1       5.674   1.640   0.404  1.00  0.00     0.211 HD
ENDBRANCH  17  21
BRANCH  18  23
ATOM     23  S   UNL     1       2.505  -0.813   3.627  1.00  0.00    -0.131 SA
ATOM     24  C   UNL     1       2.518  -2.404   2.766  1.00  0.00     0.088 C 
ENDBRANCH  18  23
BRANCH  19  25
ATOM     25  O   UNL     1       5.293   2.978   1.922  1.00  0.00    -0.387 OA
ATOM     26  H   UNL     1       5.322   3.528   2.728  1.00  0.00     0.211 HD
ENDBRANCH  19  25
BRANCH  20  27
ATOM     27  O   UNL     1       2.191   2.209   3.342  1.00  0.00    -0.387 OA
ATOM     28  H   UNL     1       1.759   1.477   3.828  1.00  0.00     0.211 HD
ENDBRANCH  20  27
ENDBRANCH  14  15
BRANCH  14  29
ATOM     29  C   UNL     1       2.813  -0.215  -1.962  1.00  0.00     0.103 C 
ATOM     30  C   UNL     1       3.291  -1.435  -1.184  1.00  0.00     0.027 C 
ATOM     31  Cl  UNL     1       4.192   0.547  -2.820  1.00  0.00    -0.121 Cl
ENDBRANCH  14  29
ENDBRANCH   3  14
TORSDOF 10
