REMARK SMILES Nc1nc(Cl)nc2c1ncn2[C@H]1C[C@H](O)[C@@H](CO)O1
REMARK SMILES IDX 12 1 13 2 14 3 16 4 19 5 11 6 2 7 3 8 8 9 4 10 7 11 9 12
REMARK SMILES IDX 5 13 6 14 10 15 1 16 15 19 17 21 18 22
REMARK H PARENT 1 17 1 18 15 20 18 23
REMARK Flexibility Score: inf
ROOT
ATOM      1  C   UNL     1      -0.530  -0.450   1.025  1.00  0.00     0.225 C 
ATOM      2  C   UNL     1      -1.120   0.959   1.031  1.00  0.00     0.090 C 
ATOM      3  C   UNL     1      -2.225   0.846   0.008  1.00  0.00     0.150 C 
ATOM      4  C   UNL     1      -2.741  -0.558   0.302  1.00  0.00     0.175 C 
ATOM      5  O   UNL     1      -1.567  -1.345   0.557  1.00  0.00    -0.350 OA
ENDROOT
BRANCH   1   6
ATOM      6  N   UNL     1       0.635  -0.581   0.166  1.00  0.00    -0.288 N 
ATOM      7  C   UNL     1       3.992   0.039  -0.623  1.00  0.00     0.156 A 
ATOM      8  N   UNL     1       4.424   0.746   0.444  1.00  0.00    -0.199 NA
ATOM      9  C   UNL     1       2.656  -0.400  -0.646  1.00  0.00     0.150 A 
ATOM     10  C   UNL     1       3.535   1.013   1.421  1.00  0.00     0.226 A 
ATOM     11  C   UNL     1       1.867  -0.050   0.437  1.00  0.00     0.169 A 
ATOM     12  N   UNL     1       1.934  -1.143  -1.554  1.00  0.00    -0.231 NA
ATOM     13  Cl  UNL     1       4.139   1.924   2.737  1.00  0.00    -0.041 Cl
ATOM     14  N   UNL     1       2.234   0.666   1.512  1.00  0.00    -0.198 NA
ATOM     15  C   UNL     1       0.729  -1.242  -1.029  1.00  0.00     0.204 A 
BRANCH   7  16
ATOM     16  N   UNL     1       4.894  -0.230  -1.643  1.00  0.00    -0.382 N 
ATOM     17  H   UNL     1       5.858  -0.171  -1.343  1.00  0.00     0.158 HD
ATOM     18  H   UNL     1       4.629  -1.011  -2.233  1.00  0.00     0.158 HD
ENDBRANCH   7  16
ENDBRANCH   1   6
BRANCH   3  19
ATOM     19  O   UNL     1      -3.232   1.827   0.161  1.00  0.00    -0.390 OA
ATOM     20  H   UNL     1      -2.810   2.704   0.094  1.00  0.00     0.211 HD
ENDBRANCH   3  19
BRANCH   4  21
ATOM     21  C   UNL     1      -3.577  -1.129  -0.841  1.00  0.00     0.190 C 
BRANCH  21  22
ATOM     22  O   UNL     1      -4.798  -0.418  -1.014  1.00  0.00    -0.394 OA
ATOM     23  H   UNL     1      -4.637   0.524  -0.808  1.00  0.00     0.210 HD
ENDBRANCH  21  22
ENDBRANCH   4  21
TORSDOF 5
