REMARK SMILES CCC(Oc1ccccc1)C(=O)N[C@@H]1C(=O)N2[C@@H]1SC(C)(C)[C@@H]2C(=O)O
REMARK SMILES IDX 11 1 12 2 13 3 3 5 2 6 1 7 4 8 5 9 6 10 10 11 7 12 9 13 8 14
REMARK SMILES IDX 14 15 15 16 18 17 16 18 17 19 19 20 23 21 20 22 21 23 22 24
REMARK SMILES IDX 24 25 25 26 26 27
REMARK H PARENT 13 4 26 28
REMARK Flexibility Score: inf
ROOT
ATOM      1  C   UNL     1       1.287   0.292  -0.360  1.00  0.00     0.261 C 
ATOM      2  O   UNL     1       1.364   1.069  -1.310  1.00  0.00    -0.271 OA
ATOM      3  N   UNL     1       0.317   0.447   0.613  1.00  0.00    -0.339 N 
ATOM      4  H   UNL     1       0.274  -0.207   1.387  1.00  0.00     0.164 HD
ENDROOT
BRANCH   1   5
ATOM      5  C   UNL     1       2.224  -0.914  -0.141  1.00  0.00     0.261 C 
BRANCH   5   6
ATOM      6  C   UNL     1       1.461  -2.202  -0.491  1.00  0.00     0.052 C 
ATOM      7  C   UNL     1       2.277  -3.456  -0.203  1.00  0.00     0.008 C 
ENDBRANCH   5   6
BRANCH   5   8
ATOM      8  O   UNL     1       3.391  -0.852  -0.968  1.00  0.00    -0.481 OA
BRANCH   8   9
ATOM      9  C   UNL     1       4.411  -0.193  -0.338  1.00  0.00     0.120 A 
ATOM     10  C   UNL     1       5.243  -0.879   0.546  1.00  0.00     0.046 A 
ATOM     11  C   UNL     1       4.648   1.144  -0.645  1.00  0.00     0.046 A 
ATOM     12  C   UNL     1       6.297  -0.205   1.162  1.00  0.00     0.004 A 
ATOM     13  C   UNL     1       5.702   1.816  -0.027  1.00  0.00     0.004 A 
ATOM     14  C   UNL     1       6.523   1.143   0.879  1.00  0.00     0.000 A 
ENDBRANCH   8   9
ENDBRANCH   5   8
ENDBRANCH   1   5
BRANCH   3  15
ATOM     15  C   UNL     1      -0.693   1.533   0.509  1.00  0.00     0.205 C 
ATOM     16  C   UNL     1      -1.840   1.494   1.541  1.00  0.00     0.250 C 
ATOM     17  C   UNL     1      -1.825   1.361  -0.532  1.00  0.00     0.176 C 
ATOM     18  O   UNL     1      -1.935   1.307   2.732  1.00  0.00    -0.272 OA
ATOM     19  N   UNL     1      -2.794   1.571   0.562  1.00  0.00    -0.311 N 
ATOM     20  S   UNL     1      -2.218  -0.333  -1.128  1.00  0.00    -0.125 SA
ATOM     21  C   UNL     1      -3.955   0.679   0.632  1.00  0.00     0.211 C 
ATOM     22  C   UNL     1      -4.010  -0.117  -0.689  1.00  0.00     0.044 C 
ATOM     23  C   UNL     1      -4.698   0.623  -1.845  1.00  0.00     0.026 C 
ATOM     24  C   UNL     1      -4.632  -1.503  -0.502  1.00  0.00     0.026 C 
BRANCH  21  25
ATOM     25  C   UNL     1      -5.257   1.410   0.945  1.00  0.00     0.327 C 
ATOM     26  O   UNL     1      -6.350   0.879   1.079  1.00  0.00    -0.250 OA
BRANCH  25  27
ATOM     27  O   UNL     1      -5.146   2.749   1.054  1.00  0.00    -0.480 OA
ATOM     28  H   UNL     1      -6.047   3.058   1.283  1.00  0.00     0.296 HD
ENDBRANCH  25  27
ENDBRANCH  21  25
ENDBRANCH   3  15
TORSDOF 7
