REMARK SMILES COc1nccnc1NS(=O)(=O)c1ccc(N)cc1
REMARK SMILES IDX 10 1 11 2 12 3 9 4 8 6 3 7 4 8 5 9 7 10 6 11 2 12 1 13 13 14
REMARK SMILES IDX 14 15 19 16 15 17 18 18 16 19 17 20
REMARK H PARENT 9 5 17 21 17 22
REMARK Flexibility Score: inf
ROOT
ATOM      1  S   UNL     1       0.090  -0.676  -1.633  1.00  0.00     0.263 S 
ATOM      2  O   UNL     1      -0.884   0.330  -2.000  1.00  0.00    -0.201 OA
ATOM      3  O   UNL     1       0.544  -1.647  -2.609  1.00  0.00    -0.201 OA
ENDROOT
BRANCH   1   4
ATOM      4  N   UNL     1      -0.481  -1.573  -0.330  1.00  0.00    -0.259 N 
ATOM      5  H   UNL     1      -0.856  -2.456  -0.673  1.00  0.00     0.182 HD
BRANCH   4   6
ATOM      6  C   UNL     1      -1.358  -0.859   0.524  1.00  0.00     0.203 A 
ATOM      7  C   UNL     1      -2.749  -1.011   0.446  1.00  0.00     0.258 A 
ATOM      8  N   UNL     1      -3.597  -0.299   1.227  1.00  0.00    -0.217 NA
ATOM      9  C   UNL     1      -2.997   0.584   2.059  1.00  0.00     0.135 A 
ATOM     10  N   UNL     1      -0.766   0.027   1.350  1.00  0.00    -0.232 NA
ATOM     11  C   UNL     1      -1.619   0.743   2.118  1.00  0.00     0.134 A 
BRANCH   7  12
ATOM     12  O   UNL     1      -3.244  -1.952  -0.439  1.00  0.00    -0.478 OA
ATOM     13  C   UNL     1      -4.663  -1.906  -0.558  1.00  0.00     0.280 C 
ENDBRANCH   7  12
ENDBRANCH   4   6
ENDBRANCH   1   4
BRANCH   1  14
ATOM     14  C   UNL     1       1.535   0.118  -0.977  1.00  0.00     0.088 A 
ATOM     15  C   UNL     1       2.716  -0.613  -0.837  1.00  0.00     0.024 A 
ATOM     16  C   UNL     1       1.508   1.481  -0.679  1.00  0.00     0.024 A 
ATOM     17  C   UNL     1       3.865   0.021  -0.356  1.00  0.00     0.027 A 
ATOM     18  C   UNL     1       2.664   2.103  -0.199  1.00  0.00     0.027 A 
ATOM     19  C   UNL     1       3.836   1.369   0.016  1.00  0.00     0.031 A 
BRANCH  19  20
ATOM     20  N   UNL     1       5.018   2.023   0.381  1.00  0.00    -0.399 N 
ATOM     21  H   UNL     1       4.870   2.872   0.917  1.00  0.00     0.156 HD
ATOM     22  H   UNL     1       5.710   1.414   0.806  1.00  0.00     0.156 HD
ENDBRANCH  19  20
ENDBRANCH   1  14
TORSDOF 5
