REMARK SMILES Cn1cc(-c2cc3c(N4CCN(c5ncc([C@@](C)(N)c6ccc(F)cc6)cn5)CC4)ncnn3c2)cn1
REMARK SMILES IDX 13 1 14 2 15 3 16 4 27 5 28 6 12 7 5 8 35 9 6 10 34 11 7 12
REMARK SMILES IDX 33 13 8 14 32 15 31 16 9 17 10 18 30 19 11 20 29 21 4 22
REMARK SMILES IDX 1 23 2 24 3 25 37 26 36 27 17 28 18 29 19 30 20 33 21 34
REMARK SMILES IDX 26 35 22 36 25 37 23 38 24 39
REMARK H PARENT 19 31 19 32
REMARK Flexibility Score: inf
ROOT
ATOM      1  C   UNL     1      -2.047   0.087  -0.799  1.00  0.00     0.225 A 
ATOM      2  N   UNL     1      -2.465   0.113   0.477  1.00  0.00    -0.221 NA
ATOM      3  C   UNL     1      -3.784   0.288   0.708  1.00  0.00     0.122 A 
ATOM      4  C   UNL     1      -4.736   0.467  -0.275  1.00  0.00     0.013 A 
ATOM      5  C   UNL     1      -4.209   0.395  -1.546  1.00  0.00     0.122 A 
ATOM      6  N   UNL     1      -2.898   0.217  -1.826  1.00  0.00    -0.221 NA
ENDROOT
BRANCH   1   7
ATOM      7  N   UNL     1      -0.700  -0.106  -1.055  1.00  0.00    -0.337 N 
ATOM      8  C   UNL     1       6.277   0.177   0.030  1.00  0.00     0.005 A 
ATOM      9  C   UNL     1       6.602   1.483  -0.267  1.00  0.00     0.122 A 
ATOM     10  C   UNL     1       4.923  -0.010  -0.350  1.00  0.00     0.042 A 
ATOM     11  N   UNL     1       5.506   2.077  -0.829  1.00  0.00    -0.235 N 
ATOM     12  C   UNL     1       4.462   1.198  -0.843  1.00  0.00     0.108 A 
ATOM     13  N   UNL     1       5.466   3.324  -1.315  1.00  0.00    -0.156 NA
ATOM     14  C   UNL     1       3.208   1.656  -1.378  1.00  0.00     0.156 C 
ATOM     15  C   UNL     1       4.318   3.641  -1.822  1.00  0.00     0.247 C 
ATOM     16  N   UNL     1       3.192   2.862  -1.875  1.00  0.00    -0.215 NA
ATOM     17  N   UNL     1       2.039   0.907  -1.410  1.00  0.00    -0.351 N 
ATOM     18  C   UNL     1       1.679  -0.032  -0.329  1.00  0.00     0.139 C 
ATOM     19  C   UNL     1       0.909   1.360  -2.249  1.00  0.00     0.139 C 
ATOM     20  C   UNL     1       0.198   0.088   0.089  1.00  0.00     0.141 C 
ATOM     21  C   UNL     1      -0.186   0.283  -2.374  1.00  0.00     0.141 C 
BRANCH   8  22
ATOM     22  C   UNL     1       7.145  -0.830   0.618  1.00  0.00     0.021 A 
ATOM     23  C   UNL     1      10.074  -2.260   2.141  1.00  0.00     0.173 C 
ATOM     24  N   UNL     1       8.811  -1.908   1.541  1.00  0.00    -0.275 N 
ATOM     25  C   UNL     1       8.429  -0.679   1.089  1.00  0.00     0.117 A 
ATOM     26  N   UNL     1       7.862  -2.853   1.395  1.00  0.00    -0.181 NA
ATOM     27  C   UNL     1       6.846  -2.190   0.833  1.00  0.00     0.143 A 
ENDBRANCH   8  22
ENDBRANCH   1   7
BRANCH   4  28
ATOM     28  C   UNL     1      -6.214   0.661   0.035  1.00  0.00     0.067 C 
ATOM     29  C   UNL     1      -6.379   1.856   1.010  1.00  0.00     0.038 C 
BRANCH  28  30
ATOM     30  N   UNL     1      -6.971   1.064  -1.172  1.00  0.00    -0.318 NA
ATOM     31  H   UNL     1      -7.962   1.104  -0.933  1.00  0.00     0.120 HD
ATOM     32  H   UNL     1      -6.713   2.013  -1.436  1.00  0.00     0.120 HD
ENDBRANCH  28  30
BRANCH  28  33
ATOM     33  C   UNL     1      -6.821  -0.656   0.562  1.00  0.00    -0.024 A 
ATOM     34  C   UNL     1      -6.964  -1.754  -0.316  1.00  0.00     0.009 A 
ATOM     35  C   UNL     1      -7.228  -0.833   1.897  1.00  0.00     0.009 A 
ATOM     36  C   UNL     1      -7.495  -2.970   0.118  1.00  0.00     0.039 A 
ATOM     37  C   UNL     1      -7.758  -2.052   2.332  1.00  0.00     0.039 A 
ATOM     38  C   UNL     1      -7.886  -3.108   1.440  1.00  0.00     0.123 A 
ATOM     39  F   UNL     1      -8.395  -4.272   1.863  1.00  0.00    -0.207 F 
ENDBRANCH  28  33
ENDBRANCH   4  28
TORSDOF 5
