REMARK SMILES CN(C)c1nc(N(C)C)nc(N(C)C)n1
REMARK SMILES IDX 4 1 5 2 6 3 10 4 11 5 15 6 2 7 1 8 3 9 7 10 8 11 9 12 12 13
REMARK SMILES IDX 13 14 14 15
REMARK H PARENT
REMARK Flexibility Score: inf
ROOT
ATOM      1  C   UNL     1       1.168  -0.596  -0.137  1.00  0.00     0.231 A 
ATOM      2  N   UNL     1       0.093  -1.336   0.108  1.00  0.00    -0.177 NA
ATOM      3  C   UNL     1      -1.090  -0.739   0.032  1.00  0.00     0.231 A 
ATOM      4  N   UNL     1      -1.223   0.549  -0.257  1.00  0.00    -0.177 NA
ATOM      5  C   UNL     1      -0.115   1.241  -0.493  1.00  0.00     0.231 A 
ATOM      6  N   UNL     1       1.093   0.693  -0.445  1.00  0.00    -0.177 NA
ENDROOT
BRANCH   1   7
ATOM      7  N   UNL     1       2.428  -1.207  -0.092  1.00  0.00    -0.347 N 
ATOM      8  C   UNL     1       3.541  -0.283   0.058  1.00  0.00     0.146 C 
ATOM      9  C   UNL     1       2.475  -2.425   0.702  1.00  0.00     0.146 C 
ENDBRANCH   1   7
BRANCH   3  10
ATOM     10  N   UNL     1      -2.242  -1.492   0.301  1.00  0.00    -0.347 N 
ATOM     11  C   UNL     1      -3.465  -0.923  -0.247  1.00  0.00     0.146 C 
ATOM     12  C   UNL     1      -2.065  -2.927   0.141  1.00  0.00     0.146 C 
ENDBRANCH   3  10
BRANCH   5  13
ATOM     13  N   UNL     1      -0.229   2.596  -0.828  1.00  0.00    -0.347 N 
ATOM     14  C   UNL     1       0.992   3.366  -0.649  1.00  0.00     0.146 C 
ATOM     15  C   UNL     1      -1.468   3.220  -0.392  1.00  0.00     0.146 C 
ENDBRANCH   5  13
TORSDOF 3
