REMARK SMILES CN(C/C=C/c1ccccc1)Cc1cccc2ccccc12
REMARK SMILES IDX 1 1 2 2 3 3 4 4 5 5 6 6 7 7 11 8 8 9 10 10 9 11 12 12 13 13
REMARK SMILES IDX 14 14 22 15 15 16 17 17 21 18 16 19 18 20 20 21 19 22
REMARK H PARENT
REMARK Flexibility Score: inf
ROOT
ATOM      1  C   UNL     1      -0.181  -0.471  -0.889  1.00  0.00     0.106 C 
ATOM      2  N   UNL     1      -0.181   0.027   0.493  1.00  0.00    -0.298 NA
ENDROOT
BRANCH   2   3
ATOM      3  C   UNL     1       0.939  -0.542   1.257  1.00  0.00     0.112 C 
BRANCH   3   4
ATOM      4  C   UNL     1       2.265   0.005   0.808  1.00  0.00    -0.011 C 
ATOM      5  C   UNL     1       3.308  -0.760   0.445  1.00  0.00     0.005 C 
BRANCH   5   6
ATOM      6  C   UNL     1       4.606  -0.236  -0.002  1.00  0.00    -0.026 A 
ATOM      7  C   UNL     1       5.175   0.924   0.540  1.00  0.00     0.008 A 
ATOM      8  C   UNL     1       5.328  -0.952  -0.966  1.00  0.00     0.008 A 
ATOM      9  C   UNL     1       6.427   1.372   0.109  1.00  0.00     0.001 A 
ATOM     10  C   UNL     1       6.580  -0.504  -1.398  1.00  0.00     0.001 A 
ATOM     11  C   UNL     1       7.128   0.659  -0.861  1.00  0.00     0.000 A 
ENDBRANCH   5   6
ENDBRANCH   3   4
ENDBRANCH   2   3
BRANCH   2  12
ATOM     12  C   UNL     1      -1.455  -0.298   1.167  1.00  0.00     0.120 C 
BRANCH  12  13
ATOM     13  C   UNL     1      -2.650   0.458   0.606  1.00  0.00    -0.026 A 
ATOM     14  C   UNL     1      -2.669   1.854   0.806  1.00  0.00     0.006 A 
ATOM     15  C   UNL     1      -3.724  -0.169  -0.092  1.00  0.00    -0.014 A 
ATOM     16  C   UNL     1      -3.726   2.630   0.348  1.00  0.00     0.001 A 
ATOM     17  C   UNL     1      -4.797   0.642  -0.550  1.00  0.00    -0.018 A 
ATOM     18  C   UNL     1      -3.799  -1.555  -0.372  1.00  0.00     0.009 A 
ATOM     19  C   UNL     1      -4.784   2.025  -0.322  1.00  0.00     0.009 A 
ATOM     20  C   UNL     1      -5.878   0.064  -1.238  1.00  0.00     0.009 A 
ATOM     21  C   UNL     1      -4.880  -2.114  -1.059  1.00  0.00     0.001 A 
ATOM     22  C   UNL     1      -5.921  -1.305  -1.490  1.00  0.00     0.001 A 
ENDBRANCH  12  13
ENDBRANCH   2  12
TORSDOF 5
