REMARK SMILES CC(=O)SCC(Cc1ccccc1)C(=O)NCC(=O)OCc1ccccc1
REMARK SMILES IDX 14 1 15 2 16 3 6 5 5 6 4 7 2 8 1 9 3 10 7 11 8 12 9 13 13 14
REMARK SMILES IDX 10 15 12 16 11 17 17 18 18 19 19 20 20 21 21 22 22 23 23 24
REMARK SMILES IDX 27 25 24 26 26 27 25 28
REMARK H PARENT 16 4
REMARK Flexibility Score: inf
ROOT
ATOM      1  C   UNL     1      -0.719   0.913  -1.226  1.00  0.00     0.224 C 
ATOM      2  O   UNL     1      -0.903   0.987  -2.436  1.00  0.00    -0.275 OA
ATOM      3  N   UNL     1       0.510   0.612  -0.689  1.00  0.00    -0.345 N 
ATOM      4  H   UNL     1       0.665   0.639   0.315  1.00  0.00     0.164 HD
ENDROOT
BRANCH   1   5
ATOM      5  C   UNL     1      -1.815   1.164  -0.193  1.00  0.00     0.093 C 
BRANCH   5   6
ATOM      6  C   UNL     1      -2.128  -0.113   0.606  1.00  0.00     0.091 C 
BRANCH   6   7
ATOM      7  S   UNL     1      -2.860  -1.468  -0.374  1.00  0.00    -0.088 SA
BRANCH   7   8
ATOM      8  C   UNL     1      -3.125  -2.636   0.916  1.00  0.00     0.185 C 
ATOM      9  C   UNL     1      -4.053  -3.760   0.555  1.00  0.00     0.101 C 
ATOM     10  O   UNL     1      -2.620  -2.508   2.025  1.00  0.00    -0.288 OA
ENDBRANCH   7   8
ENDBRANCH   6   7
ENDBRANCH   5   6
BRANCH   5  11
ATOM     11  C   UNL     1      -3.038   1.818  -0.865  1.00  0.00     0.049 C 
BRANCH  11  12
ATOM     12  C   UNL     1      -4.092   2.272   0.119  1.00  0.00    -0.047 A 
ATOM     13  C   UNL     1      -5.289   1.556   0.259  1.00  0.00     0.004 A 
ATOM     14  C   UNL     1      -3.881   3.405   0.916  1.00  0.00     0.004 A 
ATOM     15  C   UNL     1      -6.249   1.958   1.189  1.00  0.00     0.000 A 
ATOM     16  C   UNL     1      -4.844   3.808   1.843  1.00  0.00     0.000 A 
ATOM     17  C   UNL     1      -6.026   3.083   1.981  1.00  0.00     0.000 A 
ENDBRANCH  11  12
ENDBRANCH   5  11
ENDBRANCH   1   5
BRANCH   3  18
ATOM     18  C   UNL     1       1.665   0.344  -1.531  1.00  0.00     0.238 C 
BRANCH  18  19
ATOM     19  C   UNL     1       2.948   0.572  -0.747  1.00  0.00     0.325 C 
ATOM     20  O   UNL     1       2.984   0.867   0.444  1.00  0.00    -0.250 OA
BRANCH  19  21
ATOM     21  O   UNL     1       4.026   0.400  -1.559  1.00  0.00    -0.460 OA
BRANCH  21  22
ATOM     22  C   UNL     1       5.306   0.573  -0.938  1.00  0.00     0.268 C 
BRANCH  22  23
ATOM     23  C   UNL     1       5.848  -0.764  -0.507  1.00  0.00    -0.011 A 
ATOM     24  C   UNL     1       5.758  -1.168   0.831  1.00  0.00     0.007 A 
ATOM     25  C   UNL     1       6.420  -1.636  -1.444  1.00  0.00     0.007 A 
ATOM     26  C   UNL     1       6.252  -2.411   1.228  1.00  0.00     0.000 A 
ATOM     27  C   UNL     1       6.914  -2.879  -1.044  1.00  0.00     0.000 A 
ATOM     28  C   UNL     1       6.833  -3.264   0.291  1.00  0.00     0.000 A 
ENDBRANCH  22  23
ENDBRANCH  21  22
ENDBRANCH  19  21
ENDBRANCH  18  19
ENDBRANCH   3  18
TORSDOF 11
