REMARK SMILES Cc1nc2n(c(=O)c1CCN1CCC(c3noc4cc(F)ccc34)CC1)CCCC2O
REMARK SMILES IDX 9 1 8 2 1 3 2 4 3 5 4 6 6 7 5 8 30 9 7 10 27 11 29 12 28 13
REMARK SMILES IDX 31 14 10 16 11 17 12 18 26 19 13 20 25 21 14 22 15 23 16 24
REMARK SMILES IDX 24 25 17 26 18 27 23 28 19 29 22 30 20 31 21 32
REMARK H PARENT 31 15
REMARK Flexibility Score: inf
ROOT
ATOM      1  C   UNL     1      -1.335  -2.001   0.275  1.00  0.00     0.059 C 
ENDROOT
BRANCH   1   2
ATOM      2  C   UNL     1      -2.520  -1.070   0.393  1.00  0.00     0.040 C 
ATOM      3  C   UNL     1      -2.106  -0.350   2.766  1.00  0.00     0.067 C 
ATOM      4  C   UNL     1      -2.887  -0.359   1.477  1.00  0.00     0.048 C 
ATOM      5  N   UNL     1      -3.999   0.448   1.521  1.00  0.00    -0.237 NA
ATOM      6  C   UNL     1      -4.748   0.508   0.470  1.00  0.00     0.140 C 
ATOM      7  C   UNL     1      -3.387  -0.973  -0.816  1.00  0.00     0.257 C 
ATOM      8  N   UNL     1      -4.504  -0.180  -0.694  1.00  0.00    -0.294 N 
ATOM      9  C   UNL     1      -5.987   1.404   0.481  1.00  0.00     0.181 C 
ATOM     10  O   UNL     1      -3.095  -1.586  -1.842  1.00  0.00    -0.269 OA
ATOM     11  C   UNL     1      -5.347   0.071  -1.852  1.00  0.00     0.127 C 
ATOM     12  C   UNL     1      -7.160   0.650  -0.135  1.00  0.00     0.042 C 
ATOM     13  C   UNL     1      -6.833   0.038  -1.501  1.00  0.00     0.025 C 
BRANCH   9  14
ATOM     14  O   UNL     1      -5.748   2.599  -0.253  1.00  0.00    -0.385 OA
ATOM     15  H   UNL     1      -5.018   3.056   0.205  1.00  0.00     0.211 HD
ENDBRANCH   9  14
ENDBRANCH   1   2
BRANCH   1  16
ATOM     16  C   UNL     1      -0.187  -1.432  -0.582  1.00  0.00     0.089 C 
BRANCH  16  17
ATOM     17  N   UNL     1       0.513  -0.309   0.064  1.00  0.00    -0.303 NA
ATOM     18  C   UNL     1       1.136   0.600  -0.907  1.00  0.00     0.085 C 
ATOM     19  C   UNL     1       1.495  -0.720   1.077  1.00  0.00     0.085 C 
ATOM     20  C   UNL     1       2.370   0.013  -1.595  1.00  0.00     0.026 C 
ATOM     21  C   UNL     1       2.760  -1.364   0.503  1.00  0.00     0.026 C 
ATOM     22  C   UNL     1       3.414  -0.531  -0.608  1.00  0.00     0.045 C 
BRANCH  22  23
ATOM     23  C   UNL     1       4.343   0.522  -0.065  1.00  0.00     0.095 A 
ATOM     24  N   UNL     1       3.875   1.645   0.497  1.00  0.00    -0.083 NA
ATOM     25  C   UNL     1       5.765   0.494  -0.044  1.00  0.00     0.045 A 
ATOM     26  O   UNL     1       4.985   2.376   0.880  1.00  0.00    -0.356 OA
ATOM     27  C   UNL     1       6.112   1.688   0.564  1.00  0.00     0.170 A 
ATOM     28  C   UNL     1       6.788  -0.380  -0.456  1.00  0.00     0.017 A 
ATOM     29  C   UNL     1       7.418   2.101   0.803  1.00  0.00     0.090 A 
ATOM     30  C   UNL     1       8.118   0.003  -0.229  1.00  0.00     0.040 A 
ATOM     31  C   UNL     1       8.412   1.219   0.387  1.00  0.00     0.127 A 
ATOM     32  F   UNL     1       9.695   1.548   0.587  1.00  0.00    -0.207 F 
ENDBRANCH  22  23
ENDBRANCH  16  17
ENDBRANCH   1  16
TORSDOF 5
