REMARK SMILES CCn1nc(C(=O)O)c(=O)c2cc3c(cc21)OCO3
REMARK SMILES IDX 3 1 4 2 5 3 9 4 10 5 11 6 12 7 13 8 14 9 15 10 16 11 17 12
REMARK SMILES IDX 18 13 19 14 2 15 1 16 6 17 7 18 8 19
REMARK H PARENT 8 20
REMARK Flexibility Score: inf
ROOT
ATOM      1  N   UNL     1      -0.893   1.131  -0.146  1.00  0.00    -0.264 N 
ATOM      2  N   UNL     1      -2.182   0.728  -0.374  1.00  0.00    -0.161 NA
ATOM      3  C   UNL     1      -2.432  -0.501  -0.727  1.00  0.00     0.216 C 
ATOM      4  C   UNL     1      -1.352  -1.517  -0.881  1.00  0.00     0.222 C 
ATOM      5  O   UNL     1      -1.630  -2.652  -1.241  1.00  0.00    -0.286 OA
ATOM      6  C   UNL     1       0.013  -1.095  -0.572  1.00  0.00     0.054 A 
ATOM      7  C   UNL     1       1.060  -2.026  -0.655  1.00  0.00     0.065 A 
ATOM      8  C   UNL     1       2.320  -1.577  -0.347  1.00  0.00     0.166 A 
ATOM      9  C   UNL     1       2.541  -0.275   0.026  1.00  0.00     0.167 A 
ATOM     10  C   UNL     1       1.517   0.651   0.110  1.00  0.00     0.079 A 
ATOM     11  C   UNL     1       0.202   0.254  -0.194  1.00  0.00     0.075 A 
ATOM     12  O   UNL     1       3.853  -0.029   0.291  1.00  0.00    -0.454 OA
ATOM     13  C   UNL     1       4.431  -1.328   0.039  1.00  0.00     0.468 C 
ATOM     14  O   UNL     1       3.459  -2.315  -0.364  1.00  0.00    -0.454 OA
ENDROOT
BRANCH   1  15
ATOM     15  C   UNL     1      -0.761   2.530   0.283  1.00  0.00     0.141 C 
ATOM     16  C   UNL     1      -0.808   2.642   1.799  1.00  0.00     0.029 C 
ENDBRANCH   1  15
BRANCH   3  17
ATOM     17  C   UNL     1      -3.876  -0.867  -0.973  1.00  0.00     0.360 C 
ATOM     18  O   UNL     1      -4.442  -0.751  -2.041  1.00  0.00    -0.244 OA
BRANCH  17  19
ATOM     19  O   UNL     1      -4.475  -1.318   0.136  1.00  0.00    -0.476 OA
ATOM     20  H   UNL     1      -5.392  -1.513  -0.148  1.00  0.00     0.297 HD
ENDBRANCH  17  19
ENDBRANCH   3  17
TORSDOF 3
