REMARK SMILES COc1cc2c(Oc3ccc4[nH]c(C)cc4c3F)ncnc2cc1OCCCN1CCCC1
REMARK SMILES IDX 26 1 25 2 24 3 3 4 4 5 5 6 23 7 22 8 6 9 21 10 19 11 20 12
REMARK SMILES IDX 2 13 1 14 7 15 8 16 17 17 9 18 18 19 16 20 10 21 11 22 15 23
REMARK SMILES IDX 12 24 13 25 14 27 27 28 28 29 29 30 30 31 33 32 31 33 32 34
REMARK H PARENT 12 26
REMARK Flexibility Score: inf
ROOT
ATOM      1  C   UNL     1      -2.706   1.405   1.452  1.00  0.00     0.231 C 
ENDROOT
BRANCH   1   2
ATOM      2  O   UNL     1      -1.826   0.306   1.675  1.00  0.00    -0.490 OA
BRANCH   2   3
ATOM      3  C   UNL     1      -0.886  -0.019   0.732  1.00  0.00     0.163 A 
ATOM      4  C   UNL     1       0.016  -1.032   1.092  1.00  0.00     0.161 A 
ATOM      5  C   UNL     1       1.013  -1.411   0.193  1.00  0.00     0.066 A 
ATOM      6  C   UNL     1       1.105  -0.799  -1.080  1.00  0.00     0.067 A 
ATOM      7  C   UNL     1      -0.793   0.559  -0.540  1.00  0.00     0.079 A 
ATOM      8  C   UNL     1       0.186   0.183  -1.453  1.00  0.00     0.081 A 
ATOM      9  C   UNL     1       2.068  -1.085  -2.055  1.00  0.00     0.230 A 
ATOM     10  N   UNL     1       0.209   0.773  -2.655  1.00  0.00    -0.236 NA
ATOM     11  N   UNL     1       2.098  -0.543  -3.285  1.00  0.00    -0.201 NA
ATOM     12  C   UNL     1       1.163   0.379  -3.513  1.00  0.00     0.226 A 
BRANCH   4  13
ATOM     13  O   UNL     1      -0.123  -1.567   2.348  1.00  0.00    -0.493 OA
ATOM     14  C   UNL     1       0.379  -2.882   2.538  1.00  0.00     0.278 C 
ENDBRANCH   4  13
BRANCH   9  15
ATOM     15  O   UNL     1       3.028  -2.050  -1.826  1.00  0.00    -0.435 OA
BRANCH  15  16
ATOM     16  C   UNL     1       4.140  -1.695  -1.087  1.00  0.00     0.165 A 
ATOM     17  C   UNL     1       4.541  -0.389  -0.765  1.00  0.00     0.175 A 
ATOM     18  C   UNL     1       4.901  -2.783  -0.638  1.00  0.00     0.052 A 
ATOM     19  F   UNL     1       3.848   0.683  -1.184  1.00  0.00    -0.202 F 
ATOM     20  C   UNL     1       5.685  -0.183   0.031  1.00  0.00     0.039 A 
ATOM     21  C   UNL     1       6.047  -2.605   0.146  1.00  0.00     0.031 A 
ATOM     22  C   UNL     1       6.410  -1.291   0.469  1.00  0.00     0.049 A 
ATOM     23  C   UNL     1       6.332   0.971   0.553  1.00  0.00     0.034 A 
ATOM     24  N   UNL     1       7.463  -0.817   1.220  1.00  0.00    -0.359 N 
ATOM     25  C   UNL     1       7.422   0.555   1.288  1.00  0.00     0.013 A 
ATOM     26  H   UNL     1       8.157  -1.403   1.669  1.00  0.00     0.166 HD
ATOM     27  C   UNL     1       8.431   1.330   2.048  1.00  0.00     0.064 C 
ENDBRANCH  15  16
ENDBRANCH   9  15
ENDBRANCH   2   3
ENDBRANCH   1   2
BRANCH   1  28
ATOM     28  C   UNL     1      -3.973   0.938   0.738  1.00  0.00     0.057 C 
BRANCH  28  29
ATOM     29  C   UNL     1      -4.966   2.094   0.580  1.00  0.00     0.088 C 
BRANCH  29  30
ATOM     30  N   UNL     1      -6.200   1.823  -0.152  1.00  0.00    -0.303 NA
ATOM     31  C   UNL     1      -6.034   1.521  -1.568  1.00  0.00     0.084 C 
ATOM     32  C   UNL     1      -7.034   0.755   0.389  1.00  0.00     0.084 C 
ATOM     33  C   UNL     1      -7.433   1.080  -1.978  1.00  0.00     0.017 C 
ATOM     34  C   UNL     1      -8.091   0.584  -0.693  1.00  0.00     0.017 C 
ENDBRANCH  29  30
ENDBRANCH  28  29
ENDBRANCH   1  28
TORSDOF 8
