REMARK SMILES O=S1(=O)CCN(CN2CCS(=O)(=O)NC2)CN1
REMARK SMILES IDX 7 1 6 2 1 3 2 4 3 5 4 6 17 7 5 8 16 9 8 11 9 12 15 13 10 14
REMARK SMILES IDX 14 15 11 16 12 18 13 19
REMARK H PARENT 17 10 14 17
REMARK Flexibility Score: inf
ROOT
ATOM      1  C   UNL     1       0.057   0.730  -0.036  1.00  0.00     0.174 C 
ENDROOT
BRANCH   1   2
ATOM      2  N   UNL     1      -1.131  -0.066   0.266  1.00  0.00    -0.276 NA
ATOM      3  O   UNL     1      -4.818  -1.148  -0.695  1.00  0.00    -0.212 OA
ATOM      4  S   UNL     1      -4.203   0.133  -0.425  1.00  0.00     0.213 S 
ATOM      5  O   UNL     1      -4.929   1.370  -0.599  1.00  0.00    -0.212 OA
ATOM      6  C   UNL     1      -3.450   0.093   1.190  1.00  0.00     0.169 C 
ATOM      7  N   UNL     1      -2.847   0.221  -1.424  1.00  0.00    -0.201 NA
ATOM      8  C   UNL     1      -2.068   0.713   1.097  1.00  0.00     0.105 C 
ATOM      9  C   UNL     1      -1.747  -0.608  -0.943  1.00  0.00     0.185 C 
ATOM     10  H   UNL     1      -3.133  -0.054  -2.366  1.00  0.00     0.142 HD
ENDBRANCH   1   2
BRANCH   1  11
ATOM     11  N   UNL     1       1.147  -0.154  -0.446  1.00  0.00    -0.276 NA
ATOM     12  C   UNL     1       2.177   0.591  -1.188  1.00  0.00     0.105 C 
ATOM     13  C   UNL     1       1.669  -0.960   0.654  1.00  0.00     0.185 C 
ATOM     14  C   UNL     1       3.448  -0.207  -1.416  1.00  0.00     0.169 C 
ATOM     15  N   UNL     1       2.901  -0.423   1.193  1.00  0.00    -0.201 NA
ATOM     16  S   UNL     1       4.211  -0.544   0.158  1.00  0.00     0.213 S 
ATOM     17  H   UNL     1       2.830   0.488   1.638  1.00  0.00     0.142 HD
ATOM     18  O   UNL     1       5.083   0.557   0.504  1.00  0.00    -0.212 OA
ATOM     19  O   UNL     1       4.667  -1.915   0.169  1.00  0.00    -0.212 OA
ENDBRANCH   1  11
TORSDOF 2
