REMARK SMILES CSc1ccc(OCc2ncc([N+](=O)[O-])n2C)cc1
REMARK SMILES IDX 8 1 7 2 6 3 3 4 4 5 19 6 5 7 18 8 2 9 1 10 9 11 10 12 16 13
REMARK SMILES IDX 11 14 12 15 17 16 13 17 14 18 15 19
REMARK H PARENT
REMARK Flexibility Score: inf
ROOT
ATOM      1  C   UNL     1      -1.256  -0.278  -1.022  1.00  0.00     0.332 C 
ENDROOT
BRANCH   1   2
ATOM      2  O   UNL     1      -0.279   0.264  -0.134  1.00  0.00    -0.483 OA
BRANCH   2   3
ATOM      3  C   UNL     1       0.947  -0.340  -0.120  1.00  0.00     0.120 A 
ATOM      4  C   UNL     1       3.545  -1.394   0.122  1.00  0.00     0.007 A 
ATOM      5  C   UNL     1       2.642  -1.929  -0.801  1.00  0.00     0.019 A 
ATOM      6  C   UNL     1       3.135  -0.337   0.936  1.00  0.00     0.019 A 
ATOM      7  C   UNL     1       1.351  -1.403  -0.928  1.00  0.00     0.047 A 
ATOM      8  C   UNL     1       1.845   0.188   0.810  1.00  0.00     0.047 A 
BRANCH   4   9
ATOM      9  S   UNL     1       5.172  -2.109   0.257  1.00  0.00    -0.130 SA
ATOM     10  C   UNL     1       6.188  -0.633  -0.019  1.00  0.00     0.091 C 
ENDBRANCH   4   9
ENDBRANCH   2   3
ENDBRANCH   1   2
BRANCH   1  11
ATOM     11  C   UNL     1      -2.515   0.511  -0.821  1.00  0.00     0.234 A 
ATOM     12  N   UNL     1      -3.176   1.138  -1.780  1.00  0.00    -0.210 NA
ATOM     13  N   UNL     1      -3.156   0.668   0.398  1.00  0.00    -0.210 N 
ATOM     14  C   UNL     1      -4.234   1.759  -1.172  1.00  0.00     0.218 A 
ATOM     15  C   UNL     1      -4.224   1.499   0.173  1.00  0.00     0.342 A 
ATOM     16  C   UNL     1      -2.766   0.048   1.645  1.00  0.00     0.298 C 
BRANCH  15  17
ATOM     17  N   UNL     1      -5.127   1.980   1.161  1.00  0.00    -0.026 N 
ATOM     18  O   UNL     1      -6.162   2.514   0.748  1.00  0.00    -0.358 OA
ATOM     19  O   UNL     1      -4.812   1.838   2.348  1.00  0.00    -0.358 OA
ENDBRANCH  15  17
ENDBRANCH   1  11
TORSDOF 5
