REMARK SMILES CCN[C@H]1C[C@H](C)S(=O)(=O)c2sc(S(N)(=O)=O)cc21
REMARK SMILES IDX 4 1 5 2 6 3 7 4 8 5 9 6 10 7 11 8 12 9 13 10 18 11 19 12
REMARK SMILES IDX 3 13 2 15 1 16 14 17 16 18 17 19 15 20
REMARK H PARENT 3 14 15 21 15 22
REMARK Flexibility Score: inf
ROOT
ATOM      1  C   UNL     1      -1.027  -0.224  -0.110  1.00  0.00     0.087 C 
ATOM      2  C   UNL     1      -1.843   1.095  -0.132  1.00  0.00     0.043 C 
ATOM      3  C   UNL     1      -1.531   2.036  -1.315  1.00  0.00     0.113 C 
ATOM      4  C   UNL     1      -1.796   1.390  -2.671  1.00  0.00     0.025 C 
ATOM      5  S   UNL     1       0.154   2.669  -1.194  1.00  0.00     0.190 S 
ATOM      6  O   UNL     1       0.665   2.987  -2.509  1.00  0.00    -0.223 OA
ATOM      7  O   UNL     1       0.234   3.585  -0.075  1.00  0.00    -0.223 OA
ATOM      8  C   UNL     1       1.002   1.209  -0.661  1.00  0.00     0.126 A 
ATOM      9  S   UNL     1       2.699   1.227  -0.673  1.00  0.00    -0.110 S 
ATOM     10  C   UNL     1       2.777  -0.383  -0.101  1.00  0.00     0.136 A 
ATOM     11  C   UNL     1       1.514  -0.910   0.100  1.00  0.00     0.040 A 
ATOM     12  C   UNL     1       0.464   0.020  -0.205  1.00  0.00     0.000 A 
ENDROOT
BRANCH   1  13
ATOM     13  N   UNL     1      -1.255  -0.973   1.125  1.00  0.00    -0.310 NA
ATOM     14  H   UNL     1      -1.114  -0.374   1.939  1.00  0.00     0.123 HD
BRANCH  13  15
ATOM     15  C   UNL     1      -2.560  -1.621   1.190  1.00  0.00     0.078 C 
ATOM     16  C   UNL     1      -2.648  -2.460   2.456  1.00  0.00     0.020 C 
ENDBRANCH  13  15
ENDBRANCH   1  13
BRANCH  10  17
ATOM     17  S   UNL     1       4.397  -1.061   0.119  1.00  0.00     0.247 S 
ATOM     18  O   UNL     1       4.228  -2.231   0.949  1.00  0.00    -0.206 OA
ATOM     19  O   UNL     1       4.998  -1.119  -1.192  1.00  0.00    -0.206 OA
BRANCH  17  20
ATOM     20  N   UNL     1       5.316   0.019   1.019  1.00  0.00    -0.224 NA
ATOM     21  H   UNL     1       5.704  -0.466   1.829  1.00  0.00     0.137 HD
ATOM     22  H   UNL     1       6.038   0.423   0.422  1.00  0.00     0.137 HD
ENDBRANCH  17  20
ENDBRANCH  10  17
TORSDOF 4
