REMARK SMILES CN1C[C@H](CNC(=O)OCc2ccccc2)C[C@@H]2c3cccc4c3c(cn4C)C[C@H]21
REMARK SMILES IDX 6 1 7 2 8 3 5 5 4 6 1 7 2 8 3 9 30 10 18 11 29 12 17 13
REMARK SMILES IDX 19 14 25 15 20 16 24 17 26 18 21 19 23 20 27 21 22 22 28 23
REMARK SMILES IDX 9 24 10 25 11 26 12 27 16 28 13 29 15 30 14 31
REMARK H PARENT 6 4
REMARK Flexibility Score: inf
ROOT
ATOM      1  N   UNL     1      -2.558   1.435   0.616  1.00  0.00    -0.321 N 
ATOM      2  C   UNL     1      -3.329   0.517   1.261  1.00  0.00     0.407 C 
ATOM      3  O   UNL     1      -2.974  -0.166   2.208  1.00  0.00    -0.225 OA
ATOM      4  H   UNL     1      -2.986   1.893  -0.177  1.00  0.00     0.167 HD
ENDROOT
BRANCH   1   5
ATOM      5  C   UNL     1      -1.179   1.689   0.965  1.00  0.00     0.124 C 
BRANCH   5   6
ATOM      6  C   UNL     1      -0.213   0.640   0.391  1.00  0.00     0.023 C 
ATOM      7  C   UNL     1       0.324  -1.593  -1.703  1.00  0.00     0.105 C 
ATOM      8  N   UNL     1       0.796  -0.211  -1.767  1.00  0.00    -0.302 NA
ATOM      9  C   UNL     1      -0.160   0.718  -1.145  1.00  0.00     0.090 C 
ATOM     10  C   UNL     1       2.158  -0.006  -1.211  1.00  0.00     0.068 C 
ATOM     11  C   UNL     1       2.218  -0.121   0.371  1.00  0.00     0.038 C 
ATOM     12  C   UNL     1       3.257  -0.860  -1.945  1.00  0.00     0.057 C 
ATOM     13  C   UNL     1       1.188   0.839   0.990  1.00  0.00     0.016 C 
ATOM     14  C   UNL     1       3.632   0.117   0.880  1.00  0.00    -0.034 A 
ATOM     15  C   UNL     1       4.597  -0.598  -1.343  1.00  0.00    -0.021 A 
ATOM     16  C   UNL     1       3.997   0.515   2.173  1.00  0.00     0.005 A 
ATOM     17  C   UNL     1       4.685  -0.150  -0.008  1.00  0.00     0.006 A 
ATOM     18  C   UNL     1       5.885  -0.711  -1.815  1.00  0.00     0.090 A 
ATOM     19  C   UNL     1       5.346   0.672   2.526  1.00  0.00     0.002 A 
ATOM     20  C   UNL     1       6.017   0.003   0.334  1.00  0.00     0.048 A 
ATOM     21  N   UNL     1       6.735  -0.340  -0.794  1.00  0.00    -0.350 N 
ATOM     22  C   UNL     1       6.385   0.426   1.615  1.00  0.00     0.027 A 
ATOM     23  C   UNL     1       8.178  -0.323  -0.890  1.00  0.00     0.149 C 
ENDBRANCH   5   6
ENDBRANCH   1   5
BRANCH   2  24
ATOM     24  O   UNL     1      -4.547   0.480   0.677  1.00  0.00    -0.445 OA
BRANCH  24  25
ATOM     25  C   UNL     1      -5.440  -0.459   1.281  1.00  0.00     0.270 C 
BRANCH  25  26
ATOM     26  C   UNL     1      -6.749  -0.395   0.537  1.00  0.00    -0.011 A 
ATOM     27  C   UNL     1      -6.954  -1.175  -0.610  1.00  0.00     0.007 A 
ATOM     28  C   UNL     1      -7.765   0.474   0.958  1.00  0.00     0.007 A 
ATOM     29  C   UNL     1      -8.160  -1.102  -1.309  1.00  0.00     0.000 A 
ATOM     30  C   UNL     1      -8.970   0.545   0.258  1.00  0.00     0.000 A 
ATOM     31  C   UNL     1      -9.168  -0.244  -0.873  1.00  0.00     0.000 A 
ENDBRANCH  25  26
ENDBRANCH  24  25
ENDBRANCH   2  24
TORSDOF 5
