REMARK SMILES CC(C)(O)CNc1nc(Nc2ccnc(C(F)(F)F)c2)nc(-c2cccc(C(F)(F)F)n2)n1
REMARK SMILES IDX 7 1 8 2 9 3 21 4 22 5 33 6 6 7 5 9 2 10 1 11 3 12 4 13 10 15
REMARK SMILES IDX 11 17 12 18 20 19 13 20 15 21 14 22 16 23 17 24 18 25 19 26
REMARK SMILES IDX 23 27 24 28 32 29 25 30 27 31 26 32 28 33 29 34 30 35 31 36
REMARK H PARENT 6 8 4 14 10 16
REMARK Flexibility Score: inf
ROOT
ATOM      1  C   UNL     1      -0.609  -0.236  -0.434  1.00  0.00     0.228 A 
ATOM      2  N   UNL     1       0.513  -0.919  -0.274  1.00  0.00    -0.177 NA
ATOM      3  C   UNL     1       1.596  -0.223   0.046  1.00  0.00     0.232 A 
ATOM      4  N   UNL     1       1.600   1.092   0.228  1.00  0.00    -0.191 NA
ATOM      5  C   UNL     1       0.420   1.699   0.061  1.00  0.00     0.185 A 
ATOM      6  N   UNL     1      -0.706   1.071  -0.271  1.00  0.00    -0.191 NA
ENDROOT
BRANCH   1   7
ATOM      7  N   UNL     1      -1.722  -0.974  -0.793  1.00  0.00    -0.351 N 
ATOM      8  H   UNL     1      -1.571  -1.947  -0.541  1.00  0.00     0.163 HD
BRANCH   7   9
ATOM      9  C   UNL     1      -3.009  -0.433  -0.370  1.00  0.00     0.150 C 
BRANCH   9  10
ATOM     10  C   UNL     1      -4.117  -1.505  -0.532  1.00  0.00     0.076 C 
ATOM     11  C   UNL     1      -5.439  -0.990   0.043  1.00  0.00     0.043 C 
ATOM     12  C   UNL     1      -4.308  -1.909  -1.996  1.00  0.00     0.043 C 
BRANCH  10  13
ATOM     13  O   UNL     1      -3.743  -2.688   0.196  1.00  0.00    -0.389 OA
ATOM     14  H   UNL     1      -3.673  -2.448   1.137  1.00  0.00     0.211 HD
ENDBRANCH  10  13
ENDBRANCH   9  10
ENDBRANCH   7   9
ENDBRANCH   1   7
BRANCH   3  15
ATOM     15  N   UNL     1       2.831  -0.844   0.240  1.00  0.00    -0.324 N 
ATOM     16  H   UNL     1       3.518  -0.145   0.484  1.00  0.00     0.170 HD
BRANCH  15  17
ATOM     17  C   UNL     1       3.290  -2.155   0.068  1.00  0.00     0.045 A 
ATOM     18  C   UNL     1       2.511  -3.194  -0.434  1.00  0.00     0.046 A 
ATOM     19  C   UNL     1       4.598  -2.465   0.461  1.00  0.00     0.059 A 
ATOM     20  C   UNL     1       3.056  -4.464  -0.535  1.00  0.00     0.114 A 
ATOM     21  C   UNL     1       5.088  -3.769   0.326  1.00  0.00     0.146 A 
ATOM     22  N   UNL     1       4.316  -4.774  -0.168  1.00  0.00    -0.252 NA
BRANCH  21  23
ATOM     23  C   UNL     1       6.509  -4.067   0.783  1.00  0.00     0.433 C 
ATOM     24  F   UNL     1       6.616  -4.132   2.142  1.00  0.00    -0.165 F 
ATOM     25  F   UNL     1       7.022  -5.237   0.309  1.00  0.00    -0.165 F 
ATOM     26  F   UNL     1       7.393  -3.097   0.399  1.00  0.00    -0.165 F 
ENDBRANCH  21  23
ENDBRANCH  15  17
ENDBRANCH   3  15
BRANCH   5  27
ATOM     27  C   UNL     1       0.360   3.169   0.271  1.00  0.00     0.109 A 
ATOM     28  C   UNL     1       1.510   3.939   0.455  1.00  0.00     0.032 A 
ATOM     29  N   UNL     1      -0.876   3.747   0.287  1.00  0.00    -0.240 NA
ATOM     30  C   UNL     1       1.397   5.313   0.654  1.00  0.00     0.005 A 
ATOM     31  C   UNL     1      -0.985   5.095   0.473  1.00  0.00     0.145 A 
ATOM     32  C   UNL     1       0.137   5.899   0.667  1.00  0.00     0.033 A 
BRANCH  31  33
ATOM     33  C   UNL     1      -2.369   5.730   0.517  1.00  0.00     0.433 C 
ATOM     34  F   UNL     1      -3.333   5.019  -0.134  1.00  0.00    -0.165 F 
ATOM     35  F   UNL     1      -2.394   6.977  -0.043  1.00  0.00    -0.165 F 
ATOM     36  F   UNL     1      -2.824   5.898   1.794  1.00  0.00    -0.165 F 
ENDBRANCH  31  33
ENDBRANCH   5  27
TORSDOF 9
