REMARK SMILES C[C@H]1Cc2c([nH]c3cc(Cl)c(F)cc23)[C@@]2(N1)C(=O)Nc1ccc(Cl)cc12
REMARK SMILES IDX 1 1 2 2 3 3 4 4 5 5 6 6 7 7 8 8 9 9 10 10 11 11 12 12 13 13
REMARK SMILES IDX 14 14 15 15 16 16 17 17 18 18 19 19 20 20 21 21 22 22 23 23
REMARK SMILES IDX 24 24 25 25 26 26
REMARK H PARENT 6 27 16 28 19 29
REMARK Flexibility Score: inf
ROOT
ATOM      1  C   UNL     1      -0.581  -3.816   1.311  1.00  0.00     0.025 C 
ATOM      2  C   UNL     1      -0.548  -2.558   0.444  1.00  0.00     0.056 C 
ATOM      3  C   UNL     1      -1.742  -1.630   0.810  1.00  0.00     0.056 C 
ATOM      4  C   UNL     1      -1.566  -0.294   0.173  1.00  0.00    -0.015 A 
ATOM      5  C   UNL     1      -0.332   0.111  -0.294  1.00  0.00     0.054 A 
ATOM      6  N   UNL     1      -0.471   1.368  -0.819  1.00  0.00    -0.356 N 
ATOM      7  C   UNL     1      -1.779   1.787  -0.689  1.00  0.00     0.048 A 
ATOM      8  C   UNL     1      -2.379   2.994  -1.075  1.00  0.00     0.050 A 
ATOM      9  C   UNL     1      -3.744   3.146  -0.813  1.00  0.00     0.078 A 
ATOM     10  Cl  UNL     1      -4.519   4.617  -1.271  1.00  0.00    -0.081 Cl
ATOM     11  C   UNL     1      -4.470   2.132  -0.194  1.00  0.00     0.142 A 
ATOM     12  F   UNL     1      -5.780   2.287   0.054  1.00  0.00    -0.205 F 
ATOM     13  C   UNL     1      -3.863   0.934   0.186  1.00  0.00     0.051 A 
ATOM     14  C   UNL     1      -2.490   0.756  -0.066  1.00  0.00     0.006 A 
ATOM     15  C   UNL     1       0.931  -0.697  -0.249  1.00  0.00     0.167 C 
ATOM     16  N   UNL     1       0.768  -1.895   0.617  1.00  0.00    -0.292 NA
ATOM     17  C   UNL     1       1.361  -1.117  -1.714  1.00  0.00     0.255 C 
ATOM     18  O   UNL     1       0.760  -1.816  -2.516  1.00  0.00    -0.272 OA
ATOM     19  N   UNL     1       2.614  -0.551  -1.954  1.00  0.00    -0.323 N 
ATOM     20  C   UNL     1       3.073   0.155  -0.854  1.00  0.00     0.047 A 
ATOM     21  C   UNL     1       4.273   0.825  -0.738  1.00  0.00     0.028 A 
ATOM     22  C   UNL     1       4.535   1.470   0.475  1.00  0.00     0.022 A 
ATOM     23  C   UNL     1       3.602   1.424   1.527  1.00  0.00     0.041 A 
ATOM     24  Cl  UNL     1       3.958   2.229   3.006  1.00  0.00    -0.084 Cl
ATOM     25  C   UNL     1       2.393   0.740   1.390  1.00  0.00     0.029 A 
ATOM     26  C   UNL     1       2.139   0.106   0.182  1.00  0.00     0.013 A 
ATOM     27  H   UNL     1       0.269   1.920  -1.233  1.00  0.00     0.166 HD
ATOM     28  H   UNL     1       1.510  -2.554   0.390  1.00  0.00     0.124 HD
ATOM     29  H   UNL     1       3.112  -0.687  -2.822  1.00  0.00     0.170 HD
ENDROOT
TORSDOF 0
