REMARK SMILES Cc1cc2cc3c(C)cc(=O)oc3c(C)c2o1
REMARK SMILES IDX 1 1 2 2 3 3 4 4 5 5 6 6 7 7 8 8 9 9 10 10 11 11 12 12 13 13
REMARK SMILES IDX 14 14 15 15 16 16 17 17
REMARK H PARENT
REMARK Flexibility Score: inf
ROOT
ATOM      1  C   UNL     1       4.780  -0.078  -0.183  1.00  0.00     0.087 C 
ATOM      2  C   UNL     1       3.319   0.115  -0.108  1.00  0.00     0.102 A 
ATOM      3  C   UNL     1       2.514   1.215   0.093  1.00  0.00     0.054 A 
ATOM      4  C   UNL     1       1.173   0.747   0.059  1.00  0.00     0.022 A 
ATOM      5  C   UNL     1      -0.096   1.344   0.193  1.00  0.00     0.024 A 
ATOM      6  C   UNL     1      -1.250   0.547   0.101  1.00  0.00     0.022 A 
ATOM      7  C   UNL     1      -2.608   1.103   0.232  1.00  0.00    -0.033 C 
ATOM      8  C   UNL     1      -2.805   2.571   0.473  1.00  0.00     0.045 C 
ATOM      9  C   UNL     1      -3.655   0.272   0.131  1.00  0.00     0.098 C 
ATOM     10  C   UNL     1      -3.525  -1.172  -0.104  1.00  0.00     0.336 C 
ATOM     11  O   UNL     1      -4.517  -1.887  -0.188  1.00  0.00    -0.246 OA
ATOM     12  O   UNL     1      -2.240  -1.666  -0.222  1.00  0.00    -0.422 OA
ATOM     13  C   UNL     1      -1.098  -0.829  -0.124  1.00  0.00     0.145 A 
ATOM     14  C   UNL     1       0.149  -1.475  -0.265  1.00  0.00     0.036 A 
ATOM     15  C   UNL     1       0.259  -2.947  -0.504  1.00  0.00     0.052 C 
ATOM     16  C   UNL     1       1.251  -0.623  -0.162  1.00  0.00     0.140 A 
ATOM     17  O   UNL     1       2.557  -1.002  -0.263  1.00  0.00    -0.461 OA
ENDROOT
TORSDOF 0
