REMARK SMILES Cc1ncc(CSSCc2cnc(C)c(O)c2CO)c(CO)c1O
REMARK SMILES IDX 7 1 6 2 5 3 1 4 2 5 23 6 3 7 20 8 4 9 24 10 21 12 22 13 8 15
REMARK SMILES IDX 9 16 10 17 17 18 11 19 15 20 12 21 13 22 14 23 18 24 19 25
REMARK SMILES IDX 16 27
REMARK H PARENT 24 11 22 14 19 26 16 28
REMARK Flexibility Score: inf
ROOT
ATOM      1  S   UNL     1       0.480   2.781  -1.052  1.00  0.00    -0.089 SA
ENDROOT
BRANCH   1   2
ATOM      2  C   UNL     1       0.496   1.745   0.454  1.00  0.00     0.119 C 
BRANCH   2   3
ATOM      3  C   UNL     1       1.841   1.156   0.785  1.00  0.00    -0.010 A 
ATOM      4  C   UNL     1       5.785  -0.069   1.859  1.00  0.00     0.071 C 
ATOM      5  C   UNL     1       4.387   0.334   1.494  1.00  0.00     0.079 A 
ATOM      6  C   UNL     1       3.458  -0.613   1.048  1.00  0.00     0.142 A 
ATOM      7  N   UNL     1       4.087   1.651   1.587  1.00  0.00    -0.257 NA
ATOM      8  C   UNL     1       2.154  -0.219   0.699  1.00  0.00     0.027 A 
ATOM      9  C   UNL     1       2.843   2.024   1.232  1.00  0.00     0.116 A 
BRANCH   6  10
ATOM     10  O   UNL     1       3.856  -1.923   0.983  1.00  0.00    -0.506 OA
ATOM     11  H   UNL     1       3.046  -2.457   0.824  1.00  0.00     0.293 HD
ENDBRANCH   6  10
BRANCH   8  12
ATOM     12  C   UNL     1       1.142  -1.213   0.177  1.00  0.00     0.196 C 
BRANCH  12  13
ATOM     13  O   UNL     1       1.450  -2.555   0.548  1.00  0.00    -0.392 OA
ATOM     14  H   UNL     1       0.670  -3.079   0.273  1.00  0.00     0.211 HD
ENDBRANCH  12  13
ENDBRANCH   8  12
ENDBRANCH   2   3
ENDBRANCH   1   2
BRANCH   1  15
ATOM     15  S   UNL     1       0.480   1.447  -2.616  1.00  0.00    -0.089 SA
BRANCH  15  16
ATOM     16  C   UNL     1      -1.297   1.133  -2.939  1.00  0.00     0.119 C 
BRANCH  16  17
ATOM     17  C   UNL     1      -1.897   0.151  -1.969  1.00  0.00    -0.010 A 
ATOM     18  C   UNL     1      -2.801   0.501  -0.943  1.00  0.00     0.027 A 
ATOM     19  C   UNL     1      -1.508  -1.189  -2.067  1.00  0.00     0.116 A 
ATOM     20  C   UNL     1      -3.213  -0.522  -0.066  1.00  0.00     0.142 A 
ATOM     21  N   UNL     1      -1.878  -2.167  -1.214  1.00  0.00    -0.257 NA
ATOM     22  C   UNL     1      -2.742  -1.828  -0.230  1.00  0.00     0.079 A 
ATOM     23  C   UNL     1      -3.105  -2.905   0.751  1.00  0.00     0.071 C 
BRANCH  18  24
ATOM     24  C   UNL     1      -3.343   1.907  -0.841  1.00  0.00     0.196 C 
BRANCH  24  25
ATOM     25  O   UNL     1      -3.905   2.170   0.442  1.00  0.00    -0.392 OA
ATOM     26  H   UNL     1      -4.223   3.093   0.416  1.00  0.00     0.211 HD
ENDBRANCH  24  25
ENDBRANCH  18  24
BRANCH  20  27
ATOM     27  O   UNL     1      -4.059  -0.277   0.981  1.00  0.00    -0.506 OA
ATOM     28  H   UNL     1      -4.188   0.697   1.031  1.00  0.00     0.293 HD
ENDBRANCH  20  27
ENDBRANCH  16  17
ENDBRANCH  15  16
ENDBRANCH   1  15
TORSDOF 11
