REMARK SMILES O=c1c(O)c(-c2ccc(O)c(O)c2)oc2cc(O)cc(O)c12
REMARK SMILES IDX 17 1 16 2 15 3 22 4 20 5 19 6 2 7 1 8 3 9 5 10 14 11 18 12
REMARK SMILES IDX 21 14 6 16 7 17 13 18 8 19 11 20 9 21 12 22 10 24 4 26
REMARK H PARENT 18 13 21 15 12 23 10 25 4 27
REMARK Flexibility Score: inf
ROOT
ATOM      1  C   UNL     1       4.168  -1.080   0.324  1.00  0.00     0.123 A 
ATOM      2  C   UNL     1       2.809  -1.385   0.298  1.00  0.00     0.094 A 
ATOM      3  C   UNL     1       1.877  -0.359   0.150  1.00  0.00     0.146 A 
ATOM      4  C   UNL     1       2.309   0.959   0.028  1.00  0.00     0.111 A 
ATOM      5  C   UNL     1       3.676   1.255   0.054  1.00  0.00     0.134 A 
ATOM      6  C   UNL     1       4.611   0.234   0.203  1.00  0.00     0.093 A 
ATOM      7  C   UNL     1       1.296   2.004  -0.127  1.00  0.00     0.238 C 
ATOM      8  O   UNL     1       1.600   3.190  -0.245  1.00  0.00    -0.285 OA
ATOM      9  C   UNL     1      -0.124   1.587  -0.137  1.00  0.00     0.208 C 
ATOM     10  C   UNL     1      -0.410   0.278  -0.006  1.00  0.00     0.180 C 
ATOM     11  O   UNL     1       0.553  -0.715   0.130  1.00  0.00    -0.452 OA
ENDROOT
BRANCH   1  12
ATOM     12  O   UNL     1       5.045  -2.113   0.471  1.00  0.00    -0.508 OA
ATOM     13  H   UNL     1       5.951  -1.761   0.466  1.00  0.00     0.293 HD
ENDBRANCH   1  12
BRANCH   5  14
ATOM     14  O   UNL     1       4.166   2.528  -0.060  1.00  0.00    -0.507 OA
ATOM     15  H   UNL     1       3.408   3.146  -0.164  1.00  0.00     0.293 HD
ENDBRANCH   5  14
BRANCH  10  16
ATOM     16  C   UNL     1      -1.789  -0.256  -0.019  1.00  0.00     0.025 A 
ATOM     17  C   UNL     1      -2.810   0.316   0.763  1.00  0.00     0.016 A 
ATOM     18  C   UNL     1      -2.089  -1.386  -0.796  1.00  0.00     0.062 A 
ATOM     19  C   UNL     1      -4.107  -0.212   0.759  1.00  0.00     0.051 A 
ATOM     20  C   UNL     1      -3.377  -1.904  -0.794  1.00  0.00     0.158 A 
ATOM     21  C   UNL     1      -4.381  -1.323  -0.025  1.00  0.00     0.157 A 
BRANCH  20  22
ATOM     22  O   UNL     1      -3.655  -3.000  -1.560  1.00  0.00    -0.504 OA
ATOM     23  H   UNL     1      -4.604  -3.176  -1.400  1.00  0.00     0.293 HD
ENDBRANCH  20  22
BRANCH  21  24
ATOM     24  O   UNL     1      -5.626  -1.886  -0.073  1.00  0.00    -0.504 OA
ATOM     25  H   UNL     1      -6.214  -1.367   0.502  1.00  0.00     0.293 HD
ENDBRANCH  21  24
ENDBRANCH  10  16
BRANCH   9  26
ATOM     26  O   UNL     1      -1.072   2.581  -0.299  1.00  0.00    -0.502 OA
ATOM     27  H   UNL     1      -0.560   3.411  -0.404  1.00  0.00     0.293 HD
ENDBRANCH   9  26
TORSDOF 6
