REMARK SMILES COc1cc(OC)cc(N(CCNC(C)C)c2ccc3ncc(-c4cnn(C)c4)nc3c2)c1
REMARK SMILES IDX 11 1 10 2 9 3 3 4 4 5 33 6 5 7 8 8 2 9 1 10 6 11 7 12 17 13
REMARK SMILES IDX 18 14 32 15 19 16 31 17 20 18 30 19 21 20 23 21 22 22 24 23
REMARK SMILES IDX 25 24 29 25 26 26 27 27 28 28 12 29 13 30 14 32 15 33 16 34
REMARK H PARENT 13 31
REMARK Flexibility Score: inf
ROOT
ATOM      1  C   UNL     1      -3.042   1.219  -0.835  1.00  0.00     0.138 C 
ENDROOT
BRANCH   1   2
ATOM      2  N   UNL     1      -1.838   0.397  -0.541  1.00  0.00    -0.340 N 
BRANCH   2   3
ATOM      3  C   UNL     1      -2.133  -0.707   0.308  1.00  0.00     0.049 A 
ATOM      4  C   UNL     1      -2.246  -3.114   0.708  1.00  0.00     0.124 A 
ATOM      5  C   UNL     1      -2.745  -2.886   1.993  1.00  0.00     0.093 A 
ATOM      6  C   UNL     1      -1.938  -2.028  -0.119  1.00  0.00     0.073 A 
ATOM      7  C   UNL     1      -2.932  -1.578   2.447  1.00  0.00     0.124 A 
ATOM      8  C   UNL     1      -2.629  -0.503   1.605  1.00  0.00     0.073 A 
BRANCH   4   9
ATOM      9  O   UNL     1      -2.039  -4.340   0.136  1.00  0.00    -0.497 OA
ATOM     10  C   UNL     1      -2.230  -5.482   0.962  1.00  0.00     0.278 C 
ENDBRANCH   4   9
BRANCH   7  11
ATOM     11  O   UNL     1      -3.416  -1.216   3.675  1.00  0.00    -0.497 OA
ATOM     12  C   UNL     1      -3.650  -2.258   4.615  1.00  0.00     0.278 C 
ENDBRANCH   7  11
ENDBRANCH   2   3
BRANCH   2  13
ATOM     13  C   UNL     1      -0.718   0.463  -1.401  1.00  0.00     0.043 A 
ATOM     14  C   UNL     1      -0.753   1.011  -2.686  1.00  0.00     0.028 A 
ATOM     15  C   UNL     1       0.528  -0.021  -0.955  1.00  0.00     0.056 A 
ATOM     16  C   UNL     1       0.401   1.075  -3.476  1.00  0.00     0.033 A 
ATOM     17  C   UNL     1       1.684   0.031  -1.728  1.00  0.00     0.091 A 
ATOM     18  C   UNL     1       1.618   0.600  -3.018  1.00  0.00     0.089 A 
ATOM     19  N   UNL     1       2.842  -0.454  -1.236  1.00  0.00    -0.244 NA
ATOM     20  N   UNL     1       2.707   0.688  -3.806  1.00  0.00    -0.252 NA
ATOM     21  C   UNL     1       3.936  -0.378  -2.033  1.00  0.00     0.092 A 
ATOM     22  C   UNL     1       3.858   0.191  -3.293  1.00  0.00     0.140 A 
BRANCH  21  23
ATOM     23  C   UNL     1       5.171  -0.928  -1.508  1.00  0.00     0.040 A 
ATOM     24  C   UNL     1       6.464  -1.042  -2.070  1.00  0.00     0.145 A 
ATOM     25  C   UNL     1       5.308  -1.493  -0.254  1.00  0.00     0.118 A 
ATOM     26  N   UNL     1       7.337  -1.632  -1.248  1.00  0.00    -0.181 NA
ATOM     27  N   UNL     1       6.606  -1.893  -0.148  1.00  0.00    -0.275 N 
ATOM     28  C   UNL     1       7.225  -2.542   0.981  1.00  0.00     0.173 C 
ENDBRANCH  21  23
ENDBRANCH   2  13
ENDBRANCH   1   2
BRANCH   1  29
ATOM     29  C   UNL     1      -2.779   2.735  -0.658  1.00  0.00     0.103 C 
BRANCH  29  30
ATOM     30  N   UNL     1      -2.299   3.053   0.695  1.00  0.00    -0.313 NA
ATOM     31  H   UNL     1      -1.553   2.389   0.923  1.00  0.00     0.123 HD
BRANCH  30  32
ATOM     32  C   UNL     1      -1.810   4.422   0.889  1.00  0.00     0.047 C 
ATOM     33  C   UNL     1      -2.775   5.500   0.387  1.00  0.00     0.024 C 
ATOM     34  C   UNL     1      -0.407   4.614   0.309  1.00  0.00     0.024 C 
ENDBRANCH  30  32
ENDBRANCH  29  30
ENDBRANCH   1  29
TORSDOF 9
