REMARK SMILES COc1nc(N)nc2c1ncn2[C@@H]1O[C@H](CO)[C@@H](O)[C@@H]1O
REMARK SMILES IDX 13 1 14 2 15 3 18 4 20 5 12 6 3 7 4 8 9 9 5 10 8 11 10 12
REMARK SMILES IDX 7 13 11 14 2 15 1 16 6 17 21 20 16 22 17 23 19 25
REMARK H PARENT 6 18 6 19 21 21 17 24 19 26
REMARK Flexibility Score: inf
ROOT
ATOM      1  C   UNL     1      -1.286   1.589  -0.139  1.00  0.00     0.253 C 
ATOM      2  O   UNL     1      -1.707   0.961   1.090  1.00  0.00    -0.347 OA
ATOM      3  C   UNL     1      -3.005   0.366   0.861  1.00  0.00     0.178 C 
ATOM      4  C   UNL     1      -3.407   0.676  -0.590  1.00  0.00     0.179 C 
ATOM      5  C   UNL     1      -2.086   0.964  -1.287  1.00  0.00     0.195 C 
ENDROOT
BRANCH   1   6
ATOM      6  N   UNL     1       0.153   1.532  -0.259  1.00  0.00    -0.285 N 
ATOM      7  C   UNL     1       3.292   0.018  -0.105  1.00  0.00     0.246 A 
ATOM      8  N   UNL     1       2.997  -1.257   0.260  1.00  0.00    -0.176 NA
ATOM      9  C   UNL     1       2.258   0.942  -0.273  1.00  0.00     0.170 A 
ATOM     10  C   UNL     1       1.713  -1.585   0.464  1.00  0.00     0.225 A 
ATOM     11  C   UNL     1       0.980   0.464  -0.030  1.00  0.00     0.171 A 
ATOM     12  N   UNL     1       2.221   2.271  -0.640  1.00  0.00    -0.229 NA
ATOM     13  N   UNL     1       0.644  -0.783   0.339  1.00  0.00    -0.193 NA
ATOM     14  C   UNL     1       0.945   2.590  -0.625  1.00  0.00     0.204 A 
BRANCH   7  15
ATOM     15  O   UNL     1       4.604   0.394  -0.322  1.00  0.00    -0.479 OA
ATOM     16  C   UNL     1       5.536  -0.645  -0.052  1.00  0.00     0.280 C 
ENDBRANCH   7  15
BRANCH  10  17
ATOM     17  N   UNL     1       1.459  -2.902   0.795  1.00  0.00    -0.368 N 
ATOM     18  H   UNL     1       0.547  -3.183   0.461  1.00  0.00     0.159 HD
ATOM     19  H   UNL     1       2.240  -3.475   0.503  1.00  0.00     0.159 HD
ENDBRANCH  10  17
ENDBRANCH   1   6
BRANCH   5  20
ATOM     20  O   UNL     1      -1.535  -0.231  -1.840  1.00  0.00    -0.386 OA
ATOM     21  H   UNL     1      -1.487  -0.915  -1.138  1.00  0.00     0.211 HD
ENDBRANCH   5  20
BRANCH   3  22
ATOM     22  C   UNL     1      -2.900  -1.129   1.172  1.00  0.00     0.191 C 
BRANCH  22  23
ATOM     23  O   UNL     1      -1.887  -1.746   0.382  1.00  0.00    -0.394 OA
ATOM     24  H   UNL     1      -1.032  -1.409   0.745  1.00  0.00     0.210 HD
ENDBRANCH  22  23
ENDBRANCH   3  22
BRANCH   4  25
ATOM     25  O   UNL     1      -4.194   1.877  -0.618  1.00  0.00    -0.387 OA
ATOM     26  H   UNL     1      -5.097   1.645  -0.335  1.00  0.00     0.211 HD
ENDBRANCH   4  25
TORSDOF 7
