REMARK SMILES O=C(N/N=C/c1ccc([N+](=O)[O-])o1)c1ccc(O)cc1
REMARK SMILES IDX 1 1 2 2 3 3 14 5 15 6 20 7 16 8 19 9 17 10 18 11 4 13 5 14
REMARK SMILES IDX 6 15 7 16 13 17 8 18 9 19 10 20 11 21 12 22
REMARK H PARENT 3 4 18 12
REMARK Flexibility Score: inf
ROOT
ATOM      1  O   UNL     1       0.527   1.333  -0.345  1.00  0.00    -0.267 OA
ATOM      2  C   UNL     1       1.030   0.225  -0.185  1.00  0.00     0.271 C 
ATOM      3  N   UNL     1       0.329  -0.973  -0.085  1.00  0.00    -0.243 N 
ATOM      4  H   UNL     1       0.834  -1.829  -0.300  1.00  0.00     0.194 HD
ENDROOT
BRANCH   2   5
ATOM      5  C   UNL     1       2.515   0.100  -0.134  1.00  0.00     0.041 A 
ATOM      6  C   UNL     1       3.289   1.066  -0.795  1.00  0.00     0.018 A 
ATOM      7  C   UNL     1       3.150  -0.932   0.572  1.00  0.00     0.018 A 
ATOM      8  C   UNL     1       4.683   0.989  -0.773  1.00  0.00     0.047 A 
ATOM      9  C   UNL     1       4.545  -1.006   0.591  1.00  0.00     0.047 A 
ATOM     10  C   UNL     1       5.298  -0.050  -0.082  1.00  0.00     0.115 A 
BRANCH  10  11
ATOM     11  O   UNL     1       6.655  -0.165  -0.032  1.00  0.00    -0.508 OA
ATOM     12  H   UNL     1       7.051   0.576  -0.521  1.00  0.00     0.293 HD
ENDBRANCH  10  11
ENDBRANCH   2   5
BRANCH   3  13
ATOM     13  N   UNL     1      -1.030  -1.095  -0.255  1.00  0.00    -0.177 NA
ATOM     14  C   UNL     1      -1.787  -0.149   0.207  1.00  0.00     0.180 C 
BRANCH  14  15
ATOM     15  C   UNL     1      -3.211  -0.209   0.014  1.00  0.00     0.154 A 
ATOM     16  C   UNL     1      -4.019  -1.109  -0.660  1.00  0.00     0.060 A 
ATOM     17  O   UNL     1      -3.982   0.774   0.576  1.00  0.00    -0.400 OA
ATOM     18  C   UNL     1      -5.355  -0.658  -0.512  1.00  0.00     0.134 A 
ATOM     19  C   UNL     1      -5.269   0.485   0.246  1.00  0.00     0.433 A 
BRANCH  19  20
ATOM     20  N   UNL     1      -6.270   1.384   0.727  1.00  0.00     0.102 N 
ATOM     21  O   UNL     1      -7.439   1.121   0.410  1.00  0.00    -0.256 OA
ATOM     22  O   UNL     1      -5.905   2.343   1.418  1.00  0.00    -0.256 OA
ENDBRANCH  19  20
ENDBRANCH  14  15
ENDBRANCH   3  13
TORSDOF 5
