REMARK SMILES C[C@H]1Oc2cc(cnc2N)-c2c(nn(C)c2C#N)CN(C)C(=O)c2ccc(F)cc21
REMARK SMILES IDX 1 1 2 2 3 3 4 4 5 5 6 6 7 7 8 8 9 9 11 10 12 11 13 12 14 13
REMARK SMILES IDX 15 14 16 15 19 16 20 17 21 18 22 19 23 20 24 21 25 22 26 23
REMARK SMILES IDX 27 24 28 25 29 26 30 27 10 28 17 31 18 32
REMARK H PARENT 10 29 10 30
REMARK Flexibility Score: inf
ROOT
ATOM      1  C   UNL     1      -2.338   2.220   1.198  1.00  0.00     0.058 C 
ATOM      2  C   UNL     1      -2.572   1.717  -0.230  1.00  0.00     0.201 C 
ATOM      3  O   UNL     1      -1.673   2.271  -1.228  1.00  0.00    -0.482 OA
ATOM      4  C   UNL     1      -0.354   2.215  -0.874  1.00  0.00     0.162 A 
ATOM      5  C   UNL     1       0.336   1.015  -0.973  1.00  0.00     0.061 A 
ATOM      6  C   UNL     1       1.628   0.923  -0.464  1.00  0.00     0.009 A 
ATOM      7  C   UNL     1       2.200   2.097   0.019  1.00  0.00     0.122 A 
ATOM      8  N   UNL     1       1.587   3.308   0.018  1.00  0.00    -0.235 NA
ATOM      9  C   UNL     1       0.321   3.354  -0.429  1.00  0.00     0.166 A 
ATOM     10  C   UNL     1       2.276  -0.373  -0.353  1.00  0.00     0.045 A 
ATOM     11  C   UNL     1       1.720  -1.632   0.046  1.00  0.00     0.091 A 
ATOM     12  N   UNL     1       2.650  -2.599   0.043  1.00  0.00    -0.174 NA
ATOM     13  N   UNL     1       3.774  -1.981  -0.359  1.00  0.00    -0.257 N 
ATOM     14  C   UNL     1       4.996  -2.746  -0.485  1.00  0.00     0.175 C 
ATOM     15  C   UNL     1       3.603  -0.651  -0.626  1.00  0.00     0.146 A 
ATOM     16  C   UNL     1       0.300  -1.978   0.406  1.00  0.00     0.178 C 
ATOM     17  N   UNL     1      -0.261  -1.140   1.477  1.00  0.00    -0.336 N 
ATOM     18  C   UNL     1       0.455  -1.140   2.747  1.00  0.00     0.147 C 
ATOM     19  C   UNL     1      -1.611  -0.757   1.529  1.00  0.00     0.254 C 
ATOM     20  O   UNL     1      -2.173  -0.373   2.552  1.00  0.00    -0.269 OA
ATOM     21  C   UNL     1      -2.449  -0.865   0.314  1.00  0.00     0.047 A 
ATOM     22  C   UNL     1      -2.887  -2.172   0.009  1.00  0.00     0.017 A 
ATOM     23  C   UNL     1      -3.652  -2.418  -1.128  1.00  0.00     0.040 A 
ATOM     24  C   UNL     1      -3.992  -1.358  -1.952  1.00  0.00     0.123 A 
ATOM     25  F   UNL     1      -4.717  -1.584  -3.054  1.00  0.00    -0.207 F 
ATOM     26  C   UNL     1      -3.604  -0.058  -1.641  1.00  0.00     0.047 A 
ATOM     27  C   UNL     1      -2.847   0.233  -0.481  1.00  0.00     0.008 A 
ENDROOT
BRANCH   9  28
ATOM     28  N   UNL     1      -0.316   4.591  -0.349  1.00  0.00    -0.381 N 
ATOM     29  H   UNL     1       0.382   5.280  -0.084  1.00  0.00     0.158 HD
ATOM     30  H   UNL     1      -0.788   4.812  -1.219  1.00  0.00     0.158 HD
ENDBRANCH   9  28
BRANCH  15  31
ATOM     31  C   UNL     1       4.638   0.195  -1.107  1.00  0.00     0.120 C 
ATOM     32  N   UNL     1       5.505   0.864  -1.487  1.00  0.00    -0.191 NA
ENDBRANCH  15  31
TORSDOF 2
