REMARK SMILES Cc1ncc([N+](=O)[O-])n1CCO
REMARK SMILES IDX 10 1 9 2 1 3 2 4 3 5 4 6 5 7 6 8 7 9 8 10 11 11 12 12
REMARK H PARENT 12 13
REMARK Flexibility Score: inf
ROOT
ATOM      1  C   UNL     1      -0.844  -0.470   0.832  1.00  0.00     0.272 C 
ENDROOT
BRANCH   1   2
ATOM      2  N   UNL     1       0.381   0.089   0.276  1.00  0.00    -0.208 N 
ATOM      3  C   UNL     1      -0.530   2.429  -0.129  1.00  0.00     0.117 C 
ATOM      4  C   UNL     1       0.549   1.405  -0.128  1.00  0.00     0.193 A 
ATOM      5  N   UNL     1       1.795   1.628  -0.504  1.00  0.00    -0.213 NA
ATOM      6  C   UNL     1       2.458   0.441  -0.353  1.00  0.00     0.218 A 
ATOM      7  C   UNL     1       1.603  -0.521   0.118  1.00  0.00     0.342 A 
BRANCH   7   8
ATOM      8  N   UNL     1       1.905  -1.883   0.394  1.00  0.00    -0.026 N 
ATOM      9  O   UNL     1       0.959  -2.659   0.577  1.00  0.00    -0.358 OA
ATOM     10  O   UNL     1       3.101  -2.190   0.418  1.00  0.00    -0.358 OA
ENDBRANCH   7   8
ENDBRANCH   1   2
BRANCH   1  11
ATOM     11  C   UNL     1      -1.687  -1.209  -0.204  1.00  0.00     0.202 C 
BRANCH  11  12
ATOM     12  O   UNL     1      -2.407  -0.276  -1.005  1.00  0.00    -0.392 OA
ATOM     13  H   UNL     1      -2.899  -0.789  -1.671  1.00  0.00     0.210 HD
ENDBRANCH  11  12
ENDBRANCH   1  11
TORSDOF 4
