REMARK SMILES CN1C(=O)CCS(=O)(=O)C1c1ccc(Cl)cc1
REMARK SMILES IDX 1 1 2 2 3 3 4 4 5 5 6 6 7 7 8 8 9 9 10 10 11 11 12 12 17 13
REMARK SMILES IDX 13 14 16 15 14 16 15 17
REMARK H PARENT
REMARK Flexibility Score: inf
ROOT
ATOM      1  C   UNL     1      -1.090   1.575  -1.952  1.00  0.00     0.148 C 
ATOM      2  N   UNL     1      -1.347   0.854  -0.713  1.00  0.00    -0.325 N 
ATOM      3  C   UNL     1      -2.302  -0.150  -0.736  1.00  0.00     0.224 C 
ATOM      4  O   UNL     1      -2.854  -0.501  -1.780  1.00  0.00    -0.275 OA
ATOM      5  C   UNL     1      -2.763  -0.746   0.583  1.00  0.00     0.116 C 
ATOM      6  C   UNL     1      -1.669  -1.073   1.569  1.00  0.00     0.149 C 
ATOM      7  S   UNL     1      -0.781   0.393   1.996  1.00  0.00     0.176 S 
ATOM      8  O   UNL     1      -1.739   1.338   2.542  1.00  0.00    -0.226 OA
ATOM      9  O   UNL     1       0.376   0.004   2.780  1.00  0.00    -0.226 OA
ATOM     10  C   UNL     1      -0.305   0.951   0.334  1.00  0.00     0.235 C 
ENDROOT
BRANCH  10  11
ATOM     11  C   UNL     1       1.008   0.271  -0.057  1.00  0.00    -0.010 A 
ATOM     12  C   UNL     1       2.227   0.859   0.333  1.00  0.00     0.008 A 
ATOM     13  C   UNL     1       1.054  -0.927  -0.792  1.00  0.00     0.008 A 
ATOM     14  C   UNL     1       3.449   0.267   0.001  1.00  0.00     0.021 A 
ATOM     15  C   UNL     1       2.277  -1.516  -1.125  1.00  0.00     0.021 A 
ATOM     16  C   UNL     1       3.469  -0.918  -0.727  1.00  0.00     0.041 A 
ATOM     17  Cl  UNL     1       4.972  -1.646  -1.139  1.00  0.00    -0.084 Cl
ENDBRANCH  10  11
TORSDOF 1
