REMARK SMILES Cc1nnc2n1-c1ccc(Cl)cc1C(c1ccccc1)=NC2
REMARK SMILES IDX 1 1 2 2 3 3 4 4 5 5 6 6 7 7 8 8 9 9 10 10 11 11 12 12 13 13
REMARK SMILES IDX 14 14 21 15 22 16 15 17 16 18 20 19 17 20 19 21 18 22
REMARK H PARENT
REMARK Flexibility Score: inf
ROOT
ATOM      1  C   UNL     1      -3.830   1.593  -0.637  1.00  0.00     0.090 C 
ATOM      2  C   UNL     1      -3.196   0.410  -1.265  1.00  0.00     0.134 A 
ATOM      3  N   UNL     1      -3.524  -0.062  -2.451  1.00  0.00    -0.135 NA
ATOM      4  N   UNL     1      -2.645  -1.057  -2.775  1.00  0.00    -0.133 NA
ATOM      5  C   UNL     1      -1.792  -1.184  -1.782  1.00  0.00     0.159 A 
ATOM      6  N   UNL     1      -2.116  -0.305  -0.771  1.00  0.00    -0.281 N 
ATOM      7  C   UNL     1      -1.497  -0.259   0.505  1.00  0.00     0.058 A 
ATOM      8  C   UNL     1      -2.280   0.018   1.638  1.00  0.00     0.029 A 
ATOM      9  C   UNL     1      -1.718  -0.024   2.917  1.00  0.00     0.023 A 
ATOM     10  C   UNL     1      -0.377  -0.356   3.074  1.00  0.00     0.041 A 
ATOM     11  Cl  UNL     1       0.307  -0.425   4.650  1.00  0.00    -0.084 Cl
ATOM     12  C   UNL     1       0.415  -0.631   1.962  1.00  0.00     0.033 A 
ATOM     13  C   UNL     1      -0.131  -0.565   0.667  1.00  0.00     0.026 A 
ATOM     14  C   UNL     1       0.817  -0.757  -0.479  1.00  0.00     0.075 C 
ATOM     15  N   UNL     1       0.583  -1.488  -1.516  1.00  0.00    -0.276 NA
ATOM     16  C   UNL     1      -0.695  -2.170  -1.662  1.00  0.00     0.220 C 
ENDROOT
BRANCH  14  17
ATOM     17  C   UNL     1       2.139  -0.050  -0.437  1.00  0.00     0.000 A 
ATOM     18  C   UNL     1       2.255   1.247   0.079  1.00  0.00     0.010 A 
ATOM     19  C   UNL     1       3.270  -0.694  -0.954  1.00  0.00     0.010 A 
ATOM     20  C   UNL     1       3.500   1.879   0.103  1.00  0.00     0.001 A 
ATOM     21  C   UNL     1       4.512  -0.058  -0.927  1.00  0.00     0.001 A 
ATOM     22  C   UNL     1       4.626   1.225  -0.395  1.00  0.00     0.000 A 
ENDBRANCH  14  17
TORSDOF 1
