REMARK SMILES COc1cc2c(cc1OC)CC(=O)N(CCCN(C)C[C@H]1Cc3cc(OC)c(OC)cc31)CC2
REMARK SMILES IDX 15 1 14 2 33 3 34 4 5 5 3 6 4 7 8 8 7 9 6 10 2 11 1 12 9 13
REMARK SMILES IDX 10 14 11 15 12 17 13 18 16 20 17 21 18 22 19 23 20 24 21 25
REMARK SMILES IDX 22 26 32 27 23 28 31 29 24 30 28 31 25 32 29 33 30 34 26 35
REMARK SMILES IDX 27 36
REMARK H PARENT
REMARK Flexibility Score: 80.00
ROOT
ATOM      1  C   UNL     1       1.112   1.019   1.039  1.00  0.00     0.121 C 
ENDROOT
BRANCH   1   2
ATOM      2  N   UNL     1       2.075   1.153  -0.055  1.00  0.00    -0.342 N 
BRANCH   2   3
ATOM      3  C   UNL     1       1.984   0.237  -1.185  1.00  0.00     0.124 C 
BRANCH   3   4
ATOM      4  C   UNL     1       3.088  -0.818  -1.151  1.00  0.00     0.057 C 
BRANCH   4   5
ATOM      5  C   UNL     1       4.529  -0.361  -1.280  1.00  0.00    -0.039 A 
ATOM      6  C   UNL     1       6.856  -1.120  -1.532  1.00  0.00     0.161 A 
ATOM      7  C   UNL     1       5.488  -1.391  -1.412  1.00  0.00     0.054 A 
ATOM      8  C   UNL     1       7.294   0.212  -1.532  1.00  0.00     0.161 A 
ATOM      9  C   UNL     1       6.354   1.238  -1.392  1.00  0.00     0.055 A 
ATOM     10  C   UNL     1       4.973   0.973  -1.251  1.00  0.00    -0.031 A 
BRANCH   6  11
ATOM     11  O   UNL     1       7.824  -2.082  -1.677  1.00  0.00    -0.493 OA
ATOM     12  C   UNL     1       7.472  -3.417  -1.349  1.00  0.00     0.278 C 
ENDBRANCH   6  11
BRANCH   8  13
ATOM     13  O   UNL     1       8.645   0.406  -1.676  1.00  0.00    -0.493 OA
ATOM     14  C   UNL     1       9.137   1.733  -1.572  1.00  0.00     0.278 C 
ENDBRANCH   8  13
BRANCH  10  15
ATOM     15  C   UNL     1       4.051   2.168  -1.133  1.00  0.00     0.136 CG0
ATOM     16  G   UNL     1       3.081   2.105   0.032  1.00  0.00     0.000 G0
ENDBRANCH  10  15
ENDBRANCH   4   5
ENDBRANCH   3   4
ENDBRANCH   2   3
BRANCH   2  17
ATOM     17  C   UNL     1       3.081   2.105   0.032  1.00  0.00     0.227 CG0
ATOM     18  O   UNL     1       3.179   2.882   0.982  1.00  0.00    -0.275 OA
ATOM     19  G   UNL     1       4.051   2.168  -1.133  1.00  0.00     0.000 G0
ENDBRANCH   2  17
ENDBRANCH   1   2
BRANCH   1  20
ATOM     20  C   UNL     1      -0.122   1.882   0.798  1.00  0.00     0.037 C 
BRANCH  20  21
ATOM     21  C   UNL     1      -1.039   2.035   2.020  1.00  0.00     0.086 C 
BRANCH  21  22
ATOM     22  N   UNL     1      -1.856   0.896   2.461  1.00  0.00    -0.306 NA
ATOM     23  C   UNL     1      -1.117  -0.106   3.218  1.00  0.00     0.105 C 
BRANCH  22  24
ATOM     24  C   UNL     1      -2.687   0.329   1.386  1.00  0.00     0.092 C 
BRANCH  24  25
ATOM     25  C   UNL     1      -3.863  -0.483   1.938  1.00  0.00     0.038 C 
ATOM     26  C   UNL     1      -4.968   0.318   2.722  1.00  0.00     0.045 C 
ATOM     27  C   UNL     1      -4.947  -0.769   0.923  1.00  0.00    -0.036 A 
ATOM     28  C   UNL     1      -5.909  -0.091   1.626  1.00  0.00    -0.040 A 
ATOM     29  C   UNL     1      -5.222  -1.408  -0.266  1.00  0.00     0.054 A 
ATOM     30  C   UNL     1      -7.212  -0.005   1.192  1.00  0.00     0.054 A 
ATOM     31  C   UNL     1      -6.536  -1.340  -0.750  1.00  0.00     0.161 A 
ATOM     32  C   UNL     1      -7.537  -0.640  -0.014  1.00  0.00     0.161 A 
BRANCH  31  33
ATOM     33  O   UNL     1      -6.958  -1.930  -1.918  1.00  0.00    -0.493 OA
ATOM     34  C   UNL     1      -5.975  -2.549  -2.733  1.00  0.00     0.278 C 
ENDBRANCH  31  33
BRANCH  32  35
ATOM     35  O   UNL     1      -8.797  -0.645  -0.566  1.00  0.00    -0.493 OA
ATOM     36  C   UNL     1      -9.821   0.054   0.128  1.00  0.00     0.278 C 
ENDBRANCH  32  35
ENDBRANCH  24  25
ENDBRANCH  22  24
ENDBRANCH  21  22
ENDBRANCH  20  21
ENDBRANCH   1  20
TORSDOF 10
