REMARK SMILES NS(=O)(=O)Cc1noc2ccccc12
REMARK SMILES IDX 2 1 3 2 4 3 1 4 5 7 6 8 7 9 14 10 8 11 9 12 13 13 10 14
REMARK SMILES IDX 12 15 11 16
REMARK H PARENT 1 5 1 6
REMARK Flexibility Score: inf
ROOT
ATOM      1  S   UNL     1      -2.754   0.638   0.551  1.00  0.00     0.214 S 
ATOM      2  O   UNL     1      -3.540   1.653   1.218  1.00  0.00    -0.212 OA
ATOM      3  O   UNL     1      -3.370  -0.541  -0.011  1.00  0.00    -0.212 OA
ENDROOT
BRANCH   1   4
ATOM      4  N   UNL     1      -1.717   0.068   1.743  1.00  0.00    -0.228 NA
ATOM      5  H   UNL     1      -1.997   0.451   2.649  1.00  0.00     0.137 HD
ATOM      6  H   UNL     1      -1.714  -0.956   1.730  1.00  0.00     0.137 HD
ENDBRANCH   1   4
BRANCH   1   7
ATOM      7  C   UNL     1      -1.661   1.434  -0.633  1.00  0.00     0.214 C 
BRANCH   7   8
ATOM      8  C   UNL     1      -0.695   0.501  -1.255  1.00  0.00     0.108 A 
ATOM      9  N   UNL     1      -0.941  -0.003  -2.474  1.00  0.00    -0.083 NA
ATOM     10  C   UNL     1       0.566   0.069  -0.763  1.00  0.00     0.046 A 
ATOM     11  O   UNL     1       0.144  -0.808  -2.778  1.00  0.00    -0.356 OA
ATOM     12  C   UNL     1       1.044  -0.761  -1.762  1.00  0.00     0.167 A 
ATOM     13  C   UNL     1       1.358   0.271   0.381  1.00  0.00     0.014 A 
ATOM     14  C   UNL     1       2.265  -1.429  -1.714  1.00  0.00     0.051 A 
ATOM     15  C   UNL     1       2.595  -0.386   0.463  1.00  0.00     0.001 A 
ATOM     16  C   UNL     1       3.038  -1.222  -0.567  1.00  0.00     0.004 A 
ENDBRANCH   7   8
ENDBRANCH   1   7
TORSDOF 3
