REMARK SMILES COc1cc2/c(=N/c3ccc(Br)cc3F)nc[nH]c2cc1OCC1CCN(C)CC1
REMARK SMILES IDX 22 1 21 2 3 3 4 4 5 5 20 6 6 7 19 8 7 9 16 10 18 11 17 12
REMARK SMILES IDX 2 14 1 15 8 16 9 17 14 18 10 19 13 20 15 21 11 22 12 23
REMARK SMILES IDX 23 24 24 25 25 26 30 27 26 28 29 29 27 30 28 31
REMARK H PARENT 18 13
REMARK Flexibility Score: inf
ROOT
ATOM      1  O   UNL     1      -1.739   0.517  -1.152  1.00  0.00    -0.489 OA
ENDROOT
BRANCH   1   2
ATOM      2  C   UNL     1      -0.450   0.216  -0.790  1.00  0.00     0.163 A 
ATOM      3  C   UNL     1       0.455   1.301  -0.784  1.00  0.00     0.161 A 
ATOM      4  C   UNL     1       1.792   1.085  -0.443  1.00  0.00     0.064 A 
ATOM      5  C   UNL     1       2.222  -0.203  -0.106  1.00  0.00     0.047 A 
ATOM      6  C   UNL     1      -0.004  -1.069  -0.454  1.00  0.00     0.077 A 
ATOM      7  C   UNL     1       3.643  -0.480   0.259  1.00  0.00     0.163 C 
ATOM      8  C   UNL     1       1.330  -1.281  -0.096  1.00  0.00     0.054 A 
ATOM      9  N   UNL     1       4.504   0.493   0.241  1.00  0.00    -0.225 NA
ATOM     10  N   UNL     1       4.024  -1.763   0.605  1.00  0.00    -0.219 NA
ATOM     11  N   UNL     1       1.814  -2.554   0.215  1.00  0.00    -0.346 N 
ATOM     12  C   UNL     1       3.122  -2.684   0.572  1.00  0.00     0.199 C 
ATOM     13  H   UNL     1       1.163  -3.314   0.349  1.00  0.00     0.167 HD
BRANCH   3  14
ATOM     14  O   UNL     1      -0.070   2.523  -1.127  1.00  0.00    -0.493 OA
ATOM     15  C   UNL     1       0.804   3.644  -1.104  1.00  0.00     0.278 C 
ENDBRANCH   3  14
BRANCH   9  16
ATOM     16  C   UNL     1       5.829   0.229   0.625  1.00  0.00     0.101 A 
ATOM     17  C   UNL     1       6.813   0.079  -0.358  1.00  0.00     0.033 A 
ATOM     18  C   UNL     1       6.211   0.161   1.972  1.00  0.00     0.150 A 
ATOM     19  C   UNL     1       8.143  -0.159  -0.000  1.00  0.00     0.018 A 
ATOM     20  C   UNL     1       7.533  -0.075   2.341  1.00  0.00     0.057 A 
ATOM     21  F   UNL     1       5.297   0.330   2.942  1.00  0.00    -0.205 F 
ATOM     22  C   UNL     1       8.494  -0.238   1.348  1.00  0.00     0.021 A 
ATOM     23  Br  UNL     1      10.293  -0.560   1.830  1.00  0.00    -0.051 Br
ENDBRANCH   9  16
ENDBRANCH   1   2
BRANCH   1  24
ATOM     24  C   UNL     1      -2.735  -0.495  -1.012  1.00  0.00     0.233 C 
BRANCH  24  25
ATOM     25  C   UNL     1      -4.107   0.118  -1.347  1.00  0.00     0.029 C 
ATOM     26  C   UNL     1      -5.213  -0.945  -1.343  1.00  0.00     0.022 C 
ATOM     27  C   UNL     1      -4.486   1.261  -0.391  1.00  0.00     0.022 C 
ATOM     28  C   UNL     1      -5.592  -1.387   0.074  1.00  0.00     0.084 C 
ATOM     29  C   UNL     1      -4.883   0.749   0.997  1.00  0.00     0.084 C 
ATOM     30  N   UNL     1      -5.929  -0.283   0.979  1.00  0.00    -0.306 NA
ATOM     31  C   UNL     1      -7.249   0.278   0.698  1.00  0.00     0.105 C 
ENDBRANCH  24  25
ENDBRANCH   1  24
TORSDOF 5
