REMARK SMILES c1ccc(CN(CC2=NCCN2)c2ccccc2)cc1
REMARK SMILES IDX 6 1 5 2 4 3 1 4 2 5 20 6 3 7 19 8 7 9 8 10 9 11 12 12 10 13
REMARK SMILES IDX 11 14 13 16 14 17 18 18 15 19 17 20 16 21
REMARK H PARENT 12 15
REMARK Flexibility Score: inf
ROOT
ATOM      1  N   UNL     1      -0.035   0.958  -0.325  1.00  0.00    -0.360 N 
ENDROOT
BRANCH   1   2
ATOM      2  C   UNL     1       1.354   0.589  -0.652  1.00  0.00     0.152 C 
BRANCH   2   3
ATOM      3  C   UNL     1       1.710  -0.763  -0.073  1.00  0.00    -0.029 A 
ATOM      4  C   UNL     1       2.400  -3.254   1.019  1.00  0.00     0.000 A 
ATOM      5  C   UNL     1       2.291  -2.138   1.846  1.00  0.00     0.000 A 
ATOM      6  C   UNL     1       2.157  -3.134  -0.349  1.00  0.00     0.000 A 
ATOM      7  C   UNL     1       1.945  -0.899   1.304  1.00  0.00     0.005 A 
ATOM      8  C   UNL     1       1.813  -1.895  -0.893  1.00  0.00     0.005 A 
ENDBRANCH   2   3
ENDBRANCH   1   2
BRANCH   1   9
ATOM      9  C   UNL     1      -1.061   0.383  -1.243  1.00  0.00     0.191 C 
BRANCH   9  10
ATOM     10  C   UNL     1      -1.498  -0.988  -0.745  1.00  0.00     0.116 C 
ATOM     11  N   UNL     1      -1.709  -1.991  -1.561  1.00  0.00    -0.269 NA
ATOM     12  N   UNL     1      -1.678  -1.224   0.601  1.00  0.00    -0.370 N 
ATOM     13  C   UNL     1      -2.071  -3.114  -0.646  1.00  0.00     0.165 C 
ATOM     14  C   UNL     1      -1.723  -2.655   0.774  1.00  0.00     0.138 C 
ATOM     15  H   UNL     1      -1.010  -0.704   1.168  1.00  0.00     0.161 HD
ENDBRANCH   9  10
ENDBRANCH   1   9
BRANCH   1  16
ATOM     16  C   UNL     1      -0.269   2.340  -0.149  1.00  0.00     0.037 A 
ATOM     17  C   UNL     1      -1.264   2.737   0.759  1.00  0.00     0.026 A 
ATOM     18  C   UNL     1       0.414   3.342  -0.853  1.00  0.00     0.026 A 
ATOM     19  C   UNL     1      -1.556   4.086   0.971  1.00  0.00     0.002 A 
ATOM     20  C   UNL     1       0.124   4.694  -0.643  1.00  0.00     0.002 A 
ATOM     21  C   UNL     1      -0.860   5.066   0.270  1.00  0.00     0.000 A 
ENDBRANCH   1  16
TORSDOF 5
