REMARK SMILES On1ccccc1=S
REMARK SMILES IDX 2 1 3 2 4 3 5 4 6 5 7 6 8 7 1 8
REMARK H PARENT 1 9
REMARK Flexibility Score: inf
ROOT
ATOM      1  N   UNL     1       1.028   0.249   0.156  1.00  0.00    -0.184 N 
ATOM      2  C   UNL     1       0.161   1.256   0.490  1.00  0.00     0.130 C 
ATOM      3  C   UNL     1      -1.158   1.079   0.344  1.00  0.00     0.022 C 
ATOM      4  C   UNL     1      -1.658  -0.177  -0.165  1.00  0.00     0.005 C 
ATOM      5  C   UNL     1      -0.822  -1.174  -0.497  1.00  0.00     0.042 C 
ATOM      6  C   UNL     1       0.658  -0.989  -0.340  1.00  0.00     0.142 C 
ATOM      7  S   UNL     1       1.765  -2.195  -0.735  1.00  0.00    -0.056 S 
ENDROOT
BRANCH   1   8
ATOM      8  O   UNL     1       2.381   0.573   0.359  1.00  0.00    -0.428 OA
ATOM      9  H   UNL     1       2.832  -0.245   0.072  1.00  0.00     0.327 HD
ENDBRANCH   1   8
TORSDOF 1
