REMARK SMILES CCc1cc(C(N)=O)ccc1-n1nc(C(C)C)c2c(-n3cnc(-c4cnn(C)c4)c3)ccnc21
REMARK SMILES IDX 12 1 13 2 14 3 18 4 34 5 33 6 32 7 31 8 19 9 11 10 3 11 4 12
REMARK SMILES IDX 5 13 10 14 9 15 2 16 1 17 6 18 7 19 8 20 15 23 16 24 17 25
REMARK SMILES IDX 20 26 21 27 30 28 22 29 23 30 24 31 29 32 25 33 27 34 26 35
REMARK SMILES IDX 28 36
REMARK H PARENT 7 21 7 22
REMARK Flexibility Score: inf
ROOT
ATOM      1  N   UNL     1      -1.930   0.501  -0.293  1.00  0.00    -0.214 N 
ATOM      2  N   UNL     1      -1.060   1.505  -0.011  1.00  0.00    -0.170 NA
ATOM      3  C   UNL     1       0.145   1.054  -0.379  1.00  0.00     0.077 A 
ATOM      4  C   UNL     1       0.079  -0.272  -0.910  1.00  0.00     0.067 A 
ATOM      5  C   UNL     1      -1.293  -0.533  -0.970  1.00  0.00     0.165 A 
ATOM      6  N   UNL     1      -1.885  -1.570  -1.607  1.00  0.00    -0.236 NA
ATOM      7  C   UNL     1      -1.031  -2.423  -2.194  1.00  0.00     0.116 A 
ATOM      8  C   UNL     1       0.348  -2.328  -2.152  1.00  0.00     0.047 A 
ATOM      9  C   UNL     1       0.936  -1.256  -1.463  1.00  0.00     0.061 A 
ENDROOT
BRANCH   1  10
ATOM     10  C   UNL     1      -3.317   0.669   0.010  1.00  0.00     0.070 A 
ATOM     11  C   UNL     1      -4.193  -0.391   0.345  1.00  0.00    -0.022 A 
ATOM     12  C   UNL     1      -5.571  -0.097   0.462  1.00  0.00     0.019 A 
ATOM     13  C   UNL     1      -6.061   1.211   0.344  1.00  0.00     0.040 A 
ATOM     14  C   UNL     1      -3.811   1.991  -0.039  1.00  0.00     0.029 A 
ATOM     15  C   UNL     1      -5.169   2.259   0.129  1.00  0.00     0.016 A 
BRANCH  11  16
ATOM     16  C   UNL     1      -3.732  -1.804   0.657  1.00  0.00     0.034 C 
ATOM     17  C   UNL     1      -4.380  -2.443   1.885  1.00  0.00     0.009 C 
ENDBRANCH  11  16
BRANCH  13  18
ATOM     18  C   UNL     1      -7.507   1.531   0.484  1.00  0.00     0.248 C 
ATOM     19  N   UNL     1      -8.402   0.532   0.214  1.00  0.00    -0.366 N 
ATOM     20  O   UNL     1      -7.894   2.652   0.790  1.00  0.00    -0.270 OA
ATOM     21  H   UNL     1      -8.142  -0.277  -0.331  1.00  0.00     0.159 HD
ATOM     22  H   UNL     1      -9.372   0.820   0.180  1.00  0.00     0.159 HD
ENDBRANCH  13  18
ENDBRANCH   1  10
BRANCH   3  23
ATOM     23  C   UNL     1       1.306   2.016  -0.297  1.00  0.00     0.035 C 
ATOM     24  C   UNL     1       1.634   2.392   1.150  1.00  0.00     0.014 C 
ATOM     25  C   UNL     1       1.051   3.283  -1.124  1.00  0.00     0.014 C 
ENDBRANCH   3  23
BRANCH   9  26
ATOM     26  N   UNL     1       2.342  -1.244  -1.311  1.00  0.00    -0.305 N 
ATOM     27  C   UNL     1       3.277  -1.775  -2.172  1.00  0.00     0.205 A 
ATOM     28  C   UNL     1       3.048  -0.802  -0.218  1.00  0.00     0.121 A 
ATOM     29  N   UNL     1       4.506  -1.637  -1.726  1.00  0.00    -0.236 NA
ATOM     30  C   UNL     1       4.373  -1.031  -0.505  1.00  0.00     0.092 A 
BRANCH  30  31
ATOM     31  C   UNL     1       5.543  -0.734   0.300  1.00  0.00     0.040 A 
ATOM     32  C   UNL     1       6.866  -0.952  -0.006  1.00  0.00     0.118 A 
ATOM     33  C   UNL     1       5.562  -0.144   1.577  1.00  0.00     0.145 A 
ATOM     34  N   UNL     1       7.577  -0.493   1.062  1.00  0.00    -0.275 N 
ATOM     35  N   UNL     1       6.805   0.001   2.051  1.00  0.00    -0.181 NA
ATOM     36  C   UNL     1       9.011  -0.501   1.214  1.00  0.00     0.173 C 
ENDBRANCH  30  31
ENDBRANCH   9  26
TORSDOF 6
