REMARK SMILES Cn1cc(-c2cnc3cnn(S(=O)(=O)c4cnc5ccc(-c6cnn(C)c6)cn45)c3c2)cn1
REMARK SMILES IDX 12 1 13 2 14 3 15 4 21 5 28 6 20 7 29 8 19 9 18 10 17 11
REMARK SMILES IDX 16 12 22 13 26 14 25 15 27 16 24 17 23 18 11 19 10 20 30 21
REMARK SMILES IDX 9 22 8 23 31 24 7 25 5 26 6 27 4 28 3 29 32 30 2 31 33 32
REMARK SMILES IDX 1 33
REMARK H PARENT
REMARK Flexibility Score: inf
ROOT
ATOM      1  S   UNL     1      -0.465   1.791   0.522  1.00  0.00     0.301 S 
ATOM      2  O   UNL     1      -1.574   2.575   1.030  1.00  0.00    -0.198 OA
ATOM      3  O   UNL     1      -0.216   1.615  -0.895  1.00  0.00    -0.198 OA
ENDROOT
BRANCH   1   4
ATOM      4  C   UNL     1       0.977   2.514   1.194  1.00  0.00     0.182 A 
ATOM      5  C   UNL     1       4.069   0.747   0.102  1.00  0.00     0.002 C 
ATOM      6  C   UNL     1       2.746   1.020   0.166  1.00  0.00     0.103 C 
ATOM      7  C   UNL     1       4.957   1.601   0.906  1.00  0.00     0.014 C 
ATOM      8  N   UNL     1       2.264   2.064   0.962  1.00  0.00    -0.288 N 
ATOM      9  C   UNL     1       4.496   2.612   1.664  1.00  0.00     0.048 C 
ATOM     10  C   UNL     1       3.105   2.884   1.712  1.00  0.00     0.137 A 
ATOM     11  N   UNL     1       2.439   3.808   2.365  1.00  0.00    -0.236 NA
ATOM     12  C   UNL     1       1.130   3.590   2.047  1.00  0.00     0.154 A 
BRANCH   5  13
ATOM     13  C   UNL     1       4.595  -0.321  -0.699  1.00  0.00     0.021 A 
ATOM     14  C   UNL     1       7.046  -2.156  -2.601  1.00  0.00     0.173 C 
ATOM     15  N   UNL     1       5.916  -1.608  -1.893  1.00  0.00    -0.275 N 
ATOM     16  C   UNL     1       5.880  -0.440  -1.186  1.00  0.00     0.117 A 
ATOM     17  N   UNL     1       4.742  -2.262  -1.905  1.00  0.00    -0.181 NA
ATOM     18  C   UNL     1       3.939  -1.481  -1.177  1.00  0.00     0.143 A 
ENDBRANCH   5  13
ENDBRANCH   1   4
BRANCH   1  19
ATOM     19  N   UNL     1      -0.683   0.209   1.161  1.00  0.00    -0.150 N 
ATOM     20  N   UNL     1       0.281  -0.485   1.839  1.00  0.00    -0.163 NA
ATOM     21  C   UNL     1      -1.833  -0.514   0.928  1.00  0.00     0.106 A 
ATOM     22  C   UNL     1      -0.304  -1.663   2.075  1.00  0.00     0.165 A 
ATOM     23  C   UNL     1      -1.602  -1.741   1.536  1.00  0.00     0.110 A 
ATOM     24  C   UNL     1      -3.042  -0.252   0.267  1.00  0.00     0.042 A 
ATOM     25  N   UNL     1      -2.502  -2.751   1.547  1.00  0.00    -0.252 NA
ATOM     26  C   UNL     1      -3.994  -1.280   0.262  1.00  0.00     0.005 A 
ATOM     27  C   UNL     1      -3.665  -2.475   0.907  1.00  0.00     0.120 A 
BRANCH  26  28
ATOM     28  C   UNL     1      -5.280  -1.121  -0.396  1.00  0.00     0.021 A 
ATOM     29  C   UNL     1      -5.901   0.084  -0.659  1.00  0.00     0.117 A 
ATOM     30  C   UNL     1      -6.191  -2.084  -0.893  1.00  0.00     0.143 A 
ATOM     31  N   UNL     1      -7.081  -0.216  -1.277  1.00  0.00    -0.275 N 
ATOM     32  N   UNL     1      -7.285  -1.535  -1.426  1.00  0.00    -0.181 NA
ATOM     33  C   UNL     1      -8.079   0.716  -1.743  1.00  0.00     0.173 C 
ENDBRANCH  26  28
ENDBRANCH   1  19
TORSDOF 4
