REMARK SMILES CCCC(C)(COC(N)=O)COC(=O)NC(C)C
REMARK SMILES IDX 4 1 5 2 3 3 2 4 1 5 6 6 7 7 8 8 9 9 10 10 11 13 12 14 13 15
REMARK SMILES IDX 14 16 15 17 16 19 17 20 18 21
REMARK H PARENT 9 11 9 12 15 18
REMARK Flexibility Score: inf
ROOT
ATOM      1  C   UNL     1      -1.495   0.327   0.360  1.00  0.00     0.036 C 
ATOM      2  C   UNL     1      -1.457   1.821   0.764  1.00  0.00     0.018 C 
ENDROOT
BRANCH   1   3
ATOM      3  C   UNL     1      -2.977  -0.025   0.026  1.00  0.00     0.013 C 
BRANCH   3   4
ATOM      4  C   UNL     1      -3.280  -1.484  -0.347  1.00  0.00    -0.003 C 
ATOM      5  C   UNL     1      -3.859  -2.294   0.803  1.00  0.00     0.004 C 
ENDBRANCH   3   4
ENDBRANCH   1   3
BRANCH   1   6
ATOM      6  C   UNL     1      -0.935  -0.508   1.535  1.00  0.00     0.245 C 
BRANCH   6   7
ATOM      7  O   UNL     1      -1.797  -0.388   2.680  1.00  0.00    -0.449 OA
BRANCH   7   8
ATOM      8  C   UNL     1      -1.203  -0.126   3.864  1.00  0.00     0.404 C 
ATOM      9  N   UNL     1      -2.144  -0.019   4.829  1.00  0.00    -0.335 N 
ATOM     10  O   UNL     1      -0.009  -0.001   4.077  1.00  0.00    -0.225 OA
ATOM     11  H   UNL     1      -1.846   0.108   5.783  1.00  0.00     0.163 HD
ATOM     12  H   UNL     1      -3.104  -0.231   4.611  1.00  0.00     0.163 HD
ENDBRANCH   7   8
ENDBRANCH   6   7
ENDBRANCH   1   6
BRANCH   1  13
ATOM     13  C   UNL     1      -0.601   0.128  -0.890  1.00  0.00     0.245 C 
BRANCH  13  14
ATOM     14  O   UNL     1       0.756   0.498  -0.596  1.00  0.00    -0.449 OA
BRANCH  14  15
ATOM     15  C   UNL     1       1.591   0.461  -1.660  1.00  0.00     0.407 C 
ATOM     16  O   UNL     1       1.269   0.162  -2.798  1.00  0.00    -0.225 OA
ATOM     17  N   UNL     1       2.844   0.797  -1.248  1.00  0.00    -0.319 N 
ATOM     18  H   UNL     1       2.960   0.891  -0.248  1.00  0.00     0.167 HD
BRANCH  17  19
ATOM     19  C   UNL     1       4.003   0.741  -2.120  1.00  0.00     0.079 C 
ATOM     20  C   UNL     1       4.521  -0.692  -2.244  1.00  0.00     0.030 C 
ATOM     21  C   UNL     1       5.095   1.666  -1.596  1.00  0.00     0.030 C 
ENDBRANCH  17  19
ENDBRANCH  14  15
ENDBRANCH  13  14
ENDBRANCH   1  13
TORSDOF 9
