REMARK SMILES COc1cc(/C=C/C(=O)N2CCN(CC(=O)N3CCCC3)CC2)cc(OC)c1OC
REMARK SMILES IDX 8 1 9 2 10 3 11 4 12 5 13 6 22 7 23 8 7 9 6 10 5 11 3 12
REMARK SMILES IDX 4 13 28 14 25 15 24 16 2 17 1 18 29 19 30 20 26 21 27 22
REMARK SMILES IDX 14 23 15 24 16 25 17 26 18 27 21 28 19 29 20 30
REMARK H PARENT
REMARK Flexibility Score: inf
ROOT
ATOM      1  C   UNL     1      -0.794   1.056  -1.467  1.00  0.00     0.246 C 
ATOM      2  O   UNL     1      -1.066   1.839  -2.376  1.00  0.00    -0.270 OA
ATOM      3  N   UNL     1       0.504   0.730  -1.122  1.00  0.00    -0.337 N 
ATOM      4  C   UNL     1       0.923  -0.036   0.056  1.00  0.00     0.135 C 
ATOM      5  C   UNL     1       2.258   0.465   0.651  1.00  0.00     0.106 C 
ATOM      6  N   UNL     1       3.365   0.647  -0.300  1.00  0.00    -0.291 NA
ATOM      7  C   UNL     1       2.927   0.592  -1.706  1.00  0.00     0.106 C 
ATOM      8  C   UNL     1       1.585   1.309  -1.925  1.00  0.00     0.135 C 
ENDROOT
BRANCH   1   9
ATOM      9  C   UNL     1      -1.887   0.400  -0.698  1.00  0.00     0.072 C 
ATOM     10  C   UNL     1      -3.079   1.010  -0.629  1.00  0.00     0.014 C 
BRANCH  10  11
ATOM     11  C   UNL     1      -4.287   0.481   0.028  1.00  0.00    -0.018 A 
ATOM     12  C   UNL     1      -5.413  -0.849   1.724  1.00  0.00     0.165 A 
ATOM     13  C   UNL     1      -4.236  -0.398   1.119  1.00  0.00     0.058 A 
ATOM     14  C   UNL     1      -6.650  -0.375   1.259  1.00  0.00     0.203 A 
ATOM     15  C   UNL     1      -6.726   0.499   0.163  1.00  0.00     0.165 A 
ATOM     16  C   UNL     1      -5.538   0.926  -0.437  1.00  0.00     0.058 A 
BRANCH  12  17
ATOM     17  O   UNL     1      -5.442  -1.704   2.797  1.00  0.00    -0.493 OA
ATOM     18  C   UNL     1      -4.351  -2.610   2.905  1.00  0.00     0.278 C 
ENDBRANCH  12  17
BRANCH  14  19
ATOM     19  O   UNL     1      -7.807  -0.836   1.841  1.00  0.00    -0.490 OA
ATOM     20  C   UNL     1      -8.200   0.034   2.892  1.00  0.00     0.278 C 
ENDBRANCH  14  19
BRANCH  15  21
ATOM     21  O   UNL     1      -7.986   0.877  -0.228  1.00  0.00    -0.493 OA
ATOM     22  C   UNL     1      -8.094   1.712  -1.373  1.00  0.00     0.278 C 
ENDBRANCH  15  21
ENDBRANCH  10  11
ENDBRANCH   1   9
BRANCH   6  23
ATOM     23  C   UNL     1       4.517  -0.236  -0.026  1.00  0.00     0.185 C 
BRANCH  23  24
ATOM     24  C   UNL     1       5.809   0.209  -0.745  1.00  0.00     0.236 C 
ATOM     25  O   UNL     1       5.932   1.295  -1.317  1.00  0.00    -0.273 OA
ATOM     26  N   UNL     1       6.864  -0.687  -0.700  1.00  0.00    -0.342 N 
ATOM     27  C   UNL     1       6.910  -1.963  -0.006  1.00  0.00     0.119 C 
ATOM     28  C   UNL     1       8.142  -0.365  -1.311  1.00  0.00     0.119 C 
ATOM     29  C   UNL     1       8.394  -2.312   0.038  1.00  0.00     0.023 C 
ATOM     30  C   UNL     1       8.941  -1.658  -1.225  1.00  0.00     0.023 C 
ENDBRANCH  23  24
ENDBRANCH   6  23
TORSDOF 7
