REMARK SMILES CC1COc2c(N3CCN(C)CC3)c(F)cc3c(=O)c(C(=O)O)cn1c23
REMARK SMILES IDX 1 1 2 2 3 3 4 4 5 5 6 6 14 7 15 8 16 9 17 10 18 11 19 12
REMARK SMILES IDX 20 13 24 14 25 15 26 16 21 17 22 18 23 19 7 21 8 22 13 23
REMARK SMILES IDX 9 24 12 25 10 26 11 27
REMARK H PARENT 23 20
REMARK Flexibility Score: inf
ROOT
ATOM      1  C   UNL     1      -2.323  -2.638  -0.266  1.00  0.00     0.035 C 
ATOM      2  C   UNL     1      -2.024  -1.519  -1.267  1.00  0.00     0.122 C 
ATOM      3  C   UNL     1      -0.532  -1.411  -1.585  1.00  0.00     0.254 C 
ATOM      4  O   UNL     1       0.234  -1.075  -0.427  1.00  0.00    -0.487 OA
ATOM      5  C   UNL     1      -0.231   0.057   0.217  1.00  0.00     0.170 A 
ATOM      6  C   UNL     1       0.676   0.761   1.044  1.00  0.00     0.118 A 
ATOM      7  C   UNL     1       0.206   1.961   1.620  1.00  0.00     0.151 A 
ATOM      8  F   UNL     1       1.022   2.694   2.396  1.00  0.00    -0.205 F 
ATOM      9  C   UNL     1      -1.090   2.428   1.433  1.00  0.00     0.056 A 
ATOM     10  C   UNL     1      -1.976   1.690   0.651  1.00  0.00     0.053 A 
ATOM     11  C   UNL     1      -3.366   2.182   0.463  1.00  0.00     0.204 C 
ATOM     12  O   UNL     1      -3.691   3.259   0.950  1.00  0.00    -0.288 OA
ATOM     13  C   UNL     1      -4.307   1.343  -0.326  1.00  0.00     0.124 C 
ATOM     14  C   UNL     1      -3.804   0.216  -0.858  1.00  0.00     0.106 C 
ATOM     15  N   UNL     1      -2.501  -0.230  -0.745  1.00  0.00    -0.337 N 
ATOM     16  C   UNL     1      -1.569   0.495   0.036  1.00  0.00     0.097 A 
ENDROOT
BRANCH  13  17
ATOM     17  C   UNL     1      -5.725   1.708  -0.507  1.00  0.00     0.341 C 
ATOM     18  O   UNL     1      -6.336   2.603   0.045  1.00  0.00    -0.246 OA
BRANCH  17  19
ATOM     19  O   UNL     1      -6.370   0.921  -1.395  1.00  0.00    -0.477 OA
ATOM     20  H   UNL     1      -7.276   1.299  -1.398  1.00  0.00     0.297 HD
ENDBRANCH  17  19
ENDBRANCH  13  17
BRANCH   6  21
ATOM     21  N   UNL     1       1.999   0.367   1.304  1.00  0.00    -0.364 N 
ATOM     22  C   UNL     1       3.012   1.202   0.622  1.00  0.00     0.132 C 
ATOM     23  C   UNL     1       2.352  -1.057   1.454  1.00  0.00     0.132 C 
ATOM     24  C   UNL     1       4.428   0.601   0.780  1.00  0.00     0.105 C 
ATOM     25  C   UNL     1       3.298  -1.523   0.325  1.00  0.00     0.105 C 
ATOM     26  N   UNL     1       4.586  -0.787   0.287  1.00  0.00    -0.303 NA
ATOM     27  C   UNL     1       5.159  -0.826  -1.055  1.00  0.00     0.105 C 
ENDBRANCH   6  21
TORSDOF 3
