REMARK SMILES COc1ccc2[nH]c([S+]([O-])Cc3ncc(C)c(OC)c3C)nc2c1
REMARK SMILES IDX 11 1 9 2 10 3 8 4 3 5 4 6 24 7 5 8 23 9 6 10 22 11 7 12 2 14
REMARK SMILES IDX 1 15 12 16 13 17 20 18 14 19 17 20 21 21 15 22 16 23 18 24
REMARK SMILES IDX 19 25
REMARK H PARENT 7 13
REMARK Flexibility Score: inf
ROOT
ATOM      1  C   UNL     1      -0.804  -0.503   0.420  1.00  0.00     0.342 C 
ENDROOT
BRANCH   1   2
ATOM      2  S   UNL     1      -0.227  -0.625  -1.298  1.00  0.00     0.030 S 
ATOM      3  O   UNL     1      -0.536   0.803  -2.096  1.00  0.00    -0.609 OA
BRANCH   2   4
ATOM      4  C   UNL     1       1.536  -0.559  -0.933  1.00  0.00     0.322 A 
ATOM      5  C   UNL     1       5.828  -0.696   0.426  1.00  0.00     0.121 A 
ATOM      6  C   UNL     1       5.991   0.184  -0.650  1.00  0.00     0.049 A 
ATOM      7  C   UNL     1       4.559  -1.209   0.731  1.00  0.00     0.077 A 
ATOM      8  C   UNL     1       4.905   0.575  -1.449  1.00  0.00     0.032 A 
ATOM      9  C   UNL     1       3.463  -0.834  -0.056  1.00  0.00     0.097 A 
ATOM     10  C   UNL     1       3.660   0.042  -1.119  1.00  0.00     0.070 A 
ATOM     11  N   UNL     1       2.140  -1.196   0.047  1.00  0.00    -0.184 NA
ATOM     12  N   UNL     1       2.411   0.203  -1.659  1.00  0.00    -0.297 N 
ATOM     13  H   UNL     1       2.148   0.798  -2.433  1.00  0.00     0.173 HD
BRANCH   5  14
ATOM     14  O   UNL     1       6.823  -1.127   1.264  1.00  0.00    -0.497 OA
ATOM     15  C   UNL     1       8.144  -0.679   0.986  1.00  0.00     0.278 C 
ENDBRANCH   5  14
ENDBRANCH   2   4
ENDBRANCH   1   2
BRANCH   1  16
ATOM     16  C   UNL     1      -2.310  -0.540   0.483  1.00  0.00     0.097 A 
ATOM     17  N   UNL     1      -2.847  -1.791   0.480  1.00  0.00    -0.255 NA
ATOM     18  C   UNL     1      -3.100   0.617   0.520  1.00  0.00     0.018 A 
ATOM     19  C   UNL     1      -4.190  -1.909   0.527  1.00  0.00     0.118 A 
ATOM     20  C   UNL     1      -4.493   0.438   0.494  1.00  0.00     0.128 A 
ATOM     21  C   UNL     1      -2.492   1.989   0.587  1.00  0.00     0.050 C 
ATOM     22  C   UNL     1      -5.064  -0.837   0.532  1.00  0.00     0.010 A 
ATOM     23  C   UNL     1      -6.542  -1.052   0.627  1.00  0.00     0.050 C 
BRANCH  20  24
ATOM     24  O   UNL     1      -5.331   1.528   0.501  1.00  0.00    -0.496 OA
ATOM     25  C   UNL     1      -5.561   1.979  -0.837  1.00  0.00     0.278 C 
ENDBRANCH  20  24
ENDBRANCH   1  16
TORSDOF 5
