REMARK SMILES CC1(C)S[C@@H]2[C@H](NC(=O)[C@H](N)c3ccccc3)C(=O)N2[C@H]1C(=O)O
REMARK SMILES IDX 1 1 2 2 3 3 4 4 5 5 6 6 18 7 19 8 20 9 21 10 22 11 23 12
REMARK SMILES IDX 24 13 7 15 8 16 9 18 10 19 11 20 12 23 13 24 17 25 14 26
REMARK SMILES IDX 16 27 15 28
REMARK H PARENT 24 14 7 17 11 21 11 22
REMARK Flexibility Score: inf
ROOT
ATOM      1  C   UNL     1      -4.209  -1.720  -0.306  1.00  0.00     0.026 C 
ATOM      2  C   UNL     1      -3.640  -0.380  -0.778  1.00  0.00     0.044 C 
ATOM      3  C   UNL     1      -4.366   0.088  -2.048  1.00  0.00     0.026 C 
ATOM      4  S   UNL     1      -1.846  -0.619  -1.198  1.00  0.00    -0.125 SA
ATOM      5  C   UNL     1      -1.505   1.170  -0.953  1.00  0.00     0.176 C 
ATOM      6  C   UNL     1      -0.377   1.582   0.023  1.00  0.00     0.205 C 
ATOM      7  C   UNL     1      -1.525   1.749   1.043  1.00  0.00     0.250 C 
ATOM      8  O   UNL     1      -1.625   1.850   2.245  1.00  0.00    -0.272 OA
ATOM      9  N   UNL     1      -2.480   1.571   0.078  1.00  0.00    -0.311 N 
ATOM     10  C   UNL     1      -3.600   0.668   0.353  1.00  0.00     0.211 C 
ENDROOT
BRANCH  10  11
ATOM     11  C   UNL     1      -4.928   1.397   0.541  1.00  0.00     0.327 C 
ATOM     12  O   UNL     1      -5.995   0.862   0.805  1.00  0.00    -0.250 OA
BRANCH  11  13
ATOM     13  O   UNL     1      -4.874   2.732   0.368  1.00  0.00    -0.480 OA
ATOM     14  H   UNL     1      -5.783   3.046   0.556  1.00  0.00     0.296 HD
ENDBRANCH  11  13
ENDBRANCH  10  11
BRANCH   6  15
ATOM     15  N   UNL     1       0.648   0.568   0.349  1.00  0.00    -0.340 N 
ATOM     16  C   UNL     1       1.625   0.202  -0.555  1.00  0.00     0.242 C 
ATOM     17  H   UNL     1       0.564  -0.046   1.159  1.00  0.00     0.164 HD
ATOM     18  O   UNL     1       1.757   0.772  -1.635  1.00  0.00    -0.273 OA
BRANCH  16  19
ATOM     19  C   UNL     1       2.487  -1.001  -0.085  1.00  0.00     0.172 C 
BRANCH  19  20
ATOM     20  N   UNL     1       2.242  -1.280   1.357  1.00  0.00    -0.316 NA
ATOM     21  H   UNL     1       2.721  -0.554   1.894  1.00  0.00     0.119 HD
ATOM     22  H   UNL     1       2.748  -2.138   1.586  1.00  0.00     0.119 HD
ENDBRANCH  19  20
BRANCH  19  23
ATOM     23  C   UNL     1       3.972  -0.830  -0.335  1.00  0.00    -0.022 A 
ATOM     24  C   UNL     1       4.724  -1.909  -0.828  1.00  0.00     0.006 A 
ATOM     25  C   UNL     1       4.638   0.369  -0.031  1.00  0.00     0.006 A 
ATOM     26  C   UNL     1       6.101  -1.786  -1.028  1.00  0.00     0.000 A 
ATOM     27  C   UNL     1       6.014   0.489  -0.232  1.00  0.00     0.000 A 
ATOM     28  C   UNL     1       6.745  -0.587  -0.730  1.00  0.00     0.000 A 
ENDBRANCH  19  23
ENDBRANCH  16  19
ENDBRANCH   6  15
TORSDOF 6
