REMARK SMILES CC(=O)NC[C@H]1CN(c2ccc(N3CCOCC3)c(F)c2)C(=O)O1
REMARK SMILES IDX 6 1 7 2 8 3 22 4 23 5 24 6 5 7 4 8 1 9 2 10 3 11 9 13 10 14
REMARK SMILES IDX 21 15 11 16 19 17 12 18 20 19 13 20 14 21 18 22 15 23 17 24
REMARK SMILES IDX 16 25
REMARK H PARENT 4 12
REMARK Flexibility Score: inf
ROOT
ATOM      1  C   UNL     1       3.776  -0.947   1.028  1.00  0.00     0.217 C 
ATOM      2  C   UNL     1       2.578  -0.478   0.236  1.00  0.00     0.176 C 
ATOM      3  N   UNL     1       1.467  -1.028   0.957  1.00  0.00    -0.274 N 
ATOM      4  C   UNL     1       1.924  -2.026   1.805  1.00  0.00     0.414 C 
ATOM      5  O   UNL     1       1.281  -2.799   2.496  1.00  0.00    -0.224 OA
ATOM      6  O   UNL     1       3.294  -2.086   1.757  1.00  0.00    -0.442 OA
ENDROOT
BRANCH   1   7
ATOM      7  C   UNL     1       4.966  -1.373   0.162  1.00  0.00     0.163 C 
BRANCH   7   8
ATOM      8  N   UNL     1       5.375  -0.436  -0.872  1.00  0.00    -0.353 N 
ATOM      9  C   UNL     1       6.316   1.628  -1.730  1.00  0.00     0.114 C 
ATOM     10  C   UNL     1       5.724   0.862  -0.577  1.00  0.00     0.217 C 
ATOM     11  O   UNL     1       5.550   1.373   0.524  1.00  0.00    -0.275 OA
ATOM     12  H   UNL     1       5.773  -0.839  -1.713  1.00  0.00     0.163 HD
ENDBRANCH   7   8
ENDBRANCH   1   7
BRANCH   3  13
ATOM     13  C   UNL     1       0.118  -0.676   0.691  1.00  0.00     0.050 A 
ATOM     14  C   UNL     1      -0.947  -1.214   1.414  1.00  0.00     0.029 A 
ATOM     15  C   UNL     1      -0.196   0.242  -0.313  1.00  0.00     0.068 A 
ATOM     16  C   UNL     1      -2.279  -0.853   1.137  1.00  0.00     0.031 A 
ATOM     17  C   UNL     1      -1.526   0.595  -0.581  1.00  0.00     0.148 A 
ATOM     18  C   UNL     1      -2.616   0.060   0.128  1.00  0.00     0.073 A 
ATOM     19  F   UNL     1      -1.724   1.463  -1.587  1.00  0.00    -0.205 F 
BRANCH  18  20
ATOM     20  N   UNL     1      -3.936   0.403  -0.117  1.00  0.00    -0.365 N 
ATOM     21  C   UNL     1      -4.297   1.597  -0.899  1.00  0.00     0.145 C 
ATOM     22  C   UNL     1      -5.054  -0.482   0.247  1.00  0.00     0.145 C 
ATOM     23  C   UNL     1      -5.737   2.026  -0.568  1.00  0.00     0.181 C 
ATOM     24  C   UNL     1      -6.213  -0.315  -0.751  1.00  0.00     0.181 C 
ATOM     25  O   UNL     1      -6.726   1.021  -0.833  1.00  0.00    -0.378 OA
ENDBRANCH  18  20
ENDBRANCH   3  13
TORSDOF 4
