REMARK SMILES Nc1ncnc2c1ncn2[C@@H]1O[C@H](COP(=O)(O)O)[C@@H](O)[C@H]1O
REMARK SMILES IDX 14 1 13 2 11 3 12 4 22 5 20 6 10 7 2 8 3 9 7 10 4 11 6 12
REMARK SMILES IDX 8 13 5 14 9 15 1 16 23 19 21 21 15 23 16 24 17 25 18 26
REMARK SMILES IDX 19 28
REMARK H PARENT 1 17 1 18 23 20 21 22 18 27 19 29
REMARK Flexibility Score: inf
ROOT
ATOM      1  C   UNL     1       2.946  -1.192  -0.103  1.00  0.00     0.208 C 
ENDROOT
BRANCH   1   2
ATOM      2  C   UNL     1       1.934  -0.826   0.981  1.00  0.00     0.179 C 
ATOM      3  C   UNL     1      -0.065   0.380   1.175  1.00  0.00     0.253 C 
ATOM      4  O   UNL     1       1.308   0.448   0.697  1.00  0.00    -0.347 OA
ATOM      5  C   UNL     1      -0.256  -1.004   1.809  1.00  0.00     0.195 C 
ATOM      6  C   UNL     1       0.791  -1.829   1.081  1.00  0.00     0.179 C 
BRANCH   3   7
ATOM      7  N   UNL     1      -0.967   0.621   0.062  1.00  0.00    -0.285 N 
ATOM      8  C   UNL     1      -4.150   1.246  -1.258  1.00  0.00     0.155 A 
ATOM      9  N   UNL     1      -4.925   1.278  -0.150  1.00  0.00    -0.217 NA
ATOM     10  C   UNL     1      -2.775   1.004  -1.106  1.00  0.00     0.150 A 
ATOM     11  C   UNL     1      -4.336   1.102   1.052  1.00  0.00     0.226 A 
ATOM     12  C   UNL     1      -2.313   0.839   0.188  1.00  0.00     0.167 A 
ATOM     13  N   UNL     1      -1.743   0.870  -2.012  1.00  0.00    -0.231 NA
ATOM     14  N   UNL     1      -3.034   0.869   1.320  1.00  0.00    -0.216 NA
ATOM     15  C   UNL     1      -0.671   0.661  -1.274  1.00  0.00     0.204 A 
BRANCH   8  16
ATOM     16  N   UNL     1      -4.757   1.435  -2.492  1.00  0.00    -0.382 N 
ATOM     17  H   UNL     1      -5.747   1.232  -2.475  1.00  0.00     0.158 HD
ATOM     18  H   UNL     1      -4.211   1.094  -3.275  1.00  0.00     0.158 HD
ENDBRANCH   8  16
ENDBRANCH   3   7
BRANCH   5  19
ATOM     19  O   UNL     1       0.055  -0.965   3.213  1.00  0.00    -0.386 OA
ATOM     20  H   UNL     1       0.477  -1.820   3.432  1.00  0.00     0.211 HD
ENDBRANCH   5  19
BRANCH   6  21
ATOM     21  O   UNL     1       1.142  -2.996   1.812  1.00  0.00    -0.387 OA
ATOM     22  H   UNL     1       0.412  -3.637   1.723  1.00  0.00     0.211 HD
ENDBRANCH   6  21
ENDBRANCH   1   2
BRANCH   1  23
ATOM     23  O   UNL     1       4.038  -0.286  -0.044  1.00  0.00    -0.284 OA
BRANCH  23  24
ATOM     24  P   UNL     1       4.253   0.767  -1.225  1.00  0.00     0.469 P 
ATOM     25  O   UNL     1       5.353   1.752  -1.048  1.00  0.00    -0.228 OA
BRANCH  24  26
ATOM     26  O   UNL     1       2.823   1.431  -1.458  1.00  0.00    -0.303 OA
ATOM     27  H   UNL     1       2.593   2.024  -0.717  1.00  0.00     0.223 HD
ENDBRANCH  24  26
BRANCH  24  28
ATOM     28  O   UNL     1       4.416  -0.136  -2.532  1.00  0.00    -0.303 OA
ATOM     29  H   UNL     1       4.822   0.386  -3.248  1.00  0.00     0.223 HD
ENDBRANCH  24  28
ENDBRANCH  23  24
ENDBRANCH   1  23
TORSDOF 9
