REMARK SMILES Cc1ccc(-c2cc(C(F)(F)F)nn2-c2ccc(S(N)(=O)=O)cc2)cc1
REMARK SMILES IDX 15 1 16 2 17 3 18 4 23 5 24 6 14 7 6 8 7 9 8 10 13 11 5 12
REMARK SMILES IDX 1 13 2 14 3 15 26 16 4 17 25 18 9 19 10 20 11 21 12 22 19 23
REMARK SMILES IDX 21 24 22 25 20 26
REMARK H PARENT 20 27 20 28
REMARK Flexibility Score: inf
ROOT
ATOM      1  C   UNL     1       1.165  -0.725   0.363  1.00  0.00     0.065 A 
ATOM      2  C   UNL     1       2.466  -1.264   0.313  1.00  0.00     0.030 A 
ATOM      3  C   UNL     1       3.568  -0.453   0.025  1.00  0.00     0.024 A 
ATOM      4  C   UNL     1       3.378   0.911  -0.193  1.00  0.00     0.082 A 
ATOM      5  C   UNL     1       2.098   1.464  -0.139  1.00  0.00     0.024 A 
ATOM      6  C   UNL     1       0.996   0.649   0.147  1.00  0.00     0.030 A 
ENDROOT
BRANCH   1   7
ATOM      7  N   UNL     1       0.069  -1.599   0.663  1.00  0.00    -0.233 N 
ATOM      8  C   UNL     1      -1.309  -1.408   0.551  1.00  0.00     0.075 A 
ATOM      9  C   UNL     1      -1.893  -2.517   1.134  1.00  0.00     0.064 A 
ATOM     10  C   UNL     1      -0.837  -3.379   1.494  1.00  0.00     0.167 A 
ATOM     11  N   UNL     1       0.347  -2.836   1.168  1.00  0.00    -0.163 NA
BRANCH   8  12
ATOM     12  C   UNL     1      -2.003  -0.310  -0.116  1.00  0.00     0.000 A 
ATOM     13  C   UNL     1      -4.110   2.900  -2.082  1.00  0.00     0.044 C 
ATOM     14  C   UNL     1      -3.360   1.795  -1.398  1.00  0.00    -0.051 A 
ATOM     15  C   UNL     1      -2.557   0.917  -2.134  1.00  0.00     0.004 A 
ATOM     16  C   UNL     1      -3.503   1.593  -0.020  1.00  0.00     0.004 A 
ATOM     17  C   UNL     1      -1.882  -0.129  -1.499  1.00  0.00     0.010 A 
ATOM     18  C   UNL     1      -2.830   0.548   0.617  1.00  0.00     0.010 A 
ENDBRANCH   8  12
BRANCH  10  19
ATOM     19  C   UNL     1      -0.962  -4.735   2.135  1.00  0.00     0.435 C 
ATOM     20  F   UNL     1      -2.256  -5.163   2.159  1.00  0.00    -0.164 F 
ATOM     21  F   UNL     1      -0.537  -4.733   3.426  1.00  0.00    -0.164 F 
ATOM     22  F   UNL     1      -0.254  -5.694   1.483  1.00  0.00    -0.164 F 
ENDBRANCH  10  19
ENDBRANCH   1   7
BRANCH   4  23
ATOM     23  S   UNL     1       4.764   1.935  -0.586  1.00  0.00     0.238 S 
ATOM     24  O   UNL     1       4.295   3.157  -1.197  1.00  0.00    -0.207 OA
ATOM     25  O   UNL     1       5.803   1.123  -1.176  1.00  0.00    -0.207 OA
BRANCH  23  26
ATOM     26  N   UNL     1       5.321   2.367   0.937  1.00  0.00    -0.225 NA
ATOM     27  H   UNL     1       6.265   2.004   1.075  1.00  0.00     0.137 HD
ATOM     28  H   UNL     1       5.246   3.377   1.060  1.00  0.00     0.137 HD
ENDBRANCH  23  26
ENDBRANCH   4  23
TORSDOF 5
