REMARK SMILES CC(C)Cn1cnc2c(N)nc3ccccc3c21
REMARK SMILES IDX 5 1 6 2 7 3 8 4 9 5 11 6 12 7 13 8 14 9 15 10 16 11 17 12
REMARK SMILES IDX 18 13 4 14 2 15 1 16 3 17 10 18
REMARK H PARENT 10 19 10 20
REMARK Flexibility Score: inf
ROOT
ATOM      1  N   UNL     1       0.664   0.229  -1.223  1.00  0.00    -0.330 N 
ATOM      2  C   UNL     1       0.888   1.374  -1.949  1.00  0.00     0.200 A 
ATOM      3  N   UNL     1      -0.072   2.248  -1.801  1.00  0.00    -0.233 NA
ATOM      4  C   UNL     1      -0.992   1.629  -0.982  1.00  0.00     0.131 A 
ATOM      5  C   UNL     1      -2.226   2.135  -0.522  1.00  0.00     0.152 A 
ATOM      6  N   UNL     1      -2.987   1.389   0.303  1.00  0.00    -0.229 NA
ATOM      7  C   UNL     1      -2.601   0.155   0.654  1.00  0.00     0.075 A 
ATOM      8  C   UNL     1      -3.452  -0.561   1.483  1.00  0.00     0.029 A 
ATOM      9  C   UNL     1      -3.157  -1.857   1.909  1.00  0.00     0.002 A 
ATOM     10  C   UNL     1      -1.979  -2.465   1.499  1.00  0.00     0.001 A 
ATOM     11  C   UNL     1      -1.098  -1.775   0.667  1.00  0.00     0.012 A 
ATOM     12  C   UNL     1      -1.391  -0.460   0.237  1.00  0.00     0.026 A 
ATOM     13  C   UNL     1      -0.567   0.347  -0.604  1.00  0.00     0.081 A 
ENDROOT
BRANCH   1  14
ATOM     14  C   UNL     1       1.598  -0.878  -1.238  1.00  0.00     0.126 C 
BRANCH  14  15
ATOM     15  C   UNL     1       2.765  -0.804  -0.231  1.00  0.00     0.003 C 
ATOM     16  C   UNL     1       3.722   0.355  -0.524  1.00  0.00     0.009 C 
ATOM     17  C   UNL     1       2.315  -0.751   1.228  1.00  0.00     0.009 C 
ENDBRANCH  14  15
ENDBRANCH   1  14
BRANCH   5  18
ATOM     18  N   UNL     1      -2.691   3.400  -0.865  1.00  0.00    -0.382 N 
ATOM     19  H   UNL     1      -3.340   3.750  -0.173  1.00  0.00     0.158 HD
ATOM     20  H   UNL     1      -1.946   4.014  -1.173  1.00  0.00     0.158 HD
ENDBRANCH   5  18
TORSDOF 3
