REMARK SMILES CN1[C@@H]2CC[C@H]1C[C@@H](OC(c1ccccc1)c1ccccc1)C2
REMARK SMILES IDX 10 1 9 2 8 3 1 4 2 5 3 6 6 7 4 8 23 9 5 10 7 11 11 12 12 13
REMARK SMILES IDX 16 14 13 15 15 16 14 17 17 18 18 19 22 20 19 21 21 22 20 23
REMARK H PARENT
REMARK Flexibility Score: inf
ROOT
ATOM      1  C   UNL     1      -1.261  -0.765   0.314  1.00  0.00     0.179 C 
ENDROOT
BRANCH   1   2
ATOM      2  O   UNL     1      -0.291  -0.387  -0.678  1.00  0.00    -0.365 OA
BRANCH   2   3
ATOM      3  C   UNL     1       1.060  -0.355  -0.202  1.00  0.00     0.122 C 
ATOM      4  C   UNL     1       5.013   0.275   0.713  1.00  0.00     0.105 C 
ATOM      5  N   UNL     1       3.607   0.144   0.338  1.00  0.00    -0.300 NA
ATOM      6  C   UNL     1       3.394   0.213  -1.121  1.00  0.00     0.059 C 
ATOM      7  C   UNL     1       2.778   1.265   0.819  1.00  0.00     0.059 C 
ATOM      8  C   UNL     1       3.470   1.707  -1.454  1.00  0.00     0.021 C 
ATOM      9  C   UNL     1       1.990  -0.344  -1.426  1.00  0.00     0.051 C 
ATOM     10  C   UNL     1       3.052   2.406  -0.167  1.00  0.00     0.021 C 
ATOM     11  C   UNL     1       1.302   0.825   0.755  1.00  0.00     0.051 C 
ENDBRANCH   2   3
ENDBRANCH   1   2
BRANCH   1  12
ATOM     12  C   UNL     1      -2.107   0.446   0.677  1.00  0.00    -0.015 A 
ATOM     13  C   UNL     1      -2.593   1.317  -0.312  1.00  0.00     0.007 A 
ATOM     14  C   UNL     1      -2.430   0.708   2.019  1.00  0.00     0.007 A 
ATOM     15  C   UNL     1      -3.373   2.423   0.032  1.00  0.00     0.000 A 
ATOM     16  C   UNL     1      -3.209   1.814   2.361  1.00  0.00     0.000 A 
ATOM     17  C   UNL     1      -3.680   2.671   1.368  1.00  0.00     0.000 A 
ENDBRANCH   1  12
BRANCH   1  18
ATOM     18  C   UNL     1      -2.100  -1.926  -0.206  1.00  0.00    -0.015 A 
ATOM     19  C   UNL     1      -2.701  -2.816   0.701  1.00  0.00     0.007 A 
ATOM     20  C   UNL     1      -2.318  -2.124  -1.580  1.00  0.00     0.007 A 
ATOM     21  C   UNL     1      -3.483  -3.880   0.246  1.00  0.00     0.000 A 
ATOM     22  C   UNL     1      -3.101  -3.188  -2.033  1.00  0.00     0.000 A 
ATOM     23  C   UNL     1      -3.682  -4.066  -1.121  1.00  0.00     0.000 A 
ENDBRANCH   1  18
TORSDOF 4
