REMARK SMILES COc1cccc(CNc2ccc(S(=O)(=O)Nc3nc4ccccc4s3)cc2)c1O
REMARK SMILES IDX 10 1 11 2 12 3 13 4 27 5 28 6 9 7 8 9 7 10 3 11 4 12 29 13
REMARK SMILES IDX 5 14 6 15 2 16 1 17 30 18 14 20 15 21 16 22 17 23 18 25
REMARK SMILES IDX 19 26 26 27 20 28 25 29 21 30 24 31 22 32 23 33
REMARK H PARENT 9 8 30 19 17 24
REMARK Flexibility Score: inf
ROOT
ATOM      1  C   UNL     1      -0.892  -0.028  -0.495  1.00  0.00     0.034 A 
ATOM      2  C   UNL     1       0.131   0.770   0.046  1.00  0.00     0.027 A 
ATOM      3  C   UNL     1       1.439   0.721  -0.448  1.00  0.00     0.024 A 
ATOM      4  C   UNL     1       1.743  -0.160  -1.484  1.00  0.00     0.088 A 
ATOM      5  C   UNL     1       0.755  -0.978  -2.026  1.00  0.00     0.024 A 
ATOM      6  C   UNL     1      -0.547  -0.920  -1.517  1.00  0.00     0.027 A 
ENDROOT
BRANCH   1   7
ATOM      7  N   UNL     1      -2.154   0.003   0.111  1.00  0.00    -0.381 N 
ATOM      8  H   UNL     1      -2.352   0.920   0.496  1.00  0.00     0.160 HD
BRANCH   7   9
ATOM      9  C   UNL     1      -3.322  -0.526  -0.594  1.00  0.00     0.152 C 
BRANCH   9  10
ATOM     10  C   UNL     1      -4.554  -0.535   0.285  1.00  0.00     0.017 A 
ATOM     11  C   UNL     1      -6.992  -0.683   0.475  1.00  0.00     0.160 A 
ATOM     12  C   UNL     1      -6.897  -0.693   1.860  1.00  0.00     0.050 A 
ATOM     13  C   UNL     1      -5.824  -0.631  -0.297  1.00  0.00     0.162 A 
ATOM     14  C   UNL     1      -5.639  -0.630   2.467  1.00  0.00     0.004 A 
ATOM     15  C   UNL     1      -4.480  -0.551   1.686  1.00  0.00     0.009 A 
BRANCH  11  16
ATOM     16  O   UNL     1      -8.172  -0.780  -0.221  1.00  0.00    -0.493 OA
ATOM     17  C   UNL     1      -9.259  -0.076   0.372  1.00  0.00     0.278 C 
ENDBRANCH  11  16
BRANCH  13  18
ATOM     18  O   UNL     1      -5.938  -0.697  -1.664  1.00  0.00    -0.504 OA
ATOM     19  H   UNL     1      -6.869  -0.955  -1.830  1.00  0.00     0.293 HD
ENDBRANCH  13  18
ENDBRANCH   9  10
ENDBRANCH   7   9
ENDBRANCH   1   7
BRANCH   4  20
ATOM     20  S   UNL     1       3.397  -0.224  -2.112  1.00  0.00     0.263 S 
ATOM     21  O   UNL     1       3.894   1.133  -2.187  1.00  0.00    -0.201 OA
ATOM     22  O   UNL     1       3.398  -1.086  -3.274  1.00  0.00    -0.201 OA
BRANCH  20  23
ATOM     23  N   UNL     1       4.166  -1.117  -0.901  1.00  0.00    -0.255 N 
ATOM     24  H   UNL     1       4.359  -2.038  -1.289  1.00  0.00     0.182 HD
BRANCH  23  25
ATOM     25  C   UNL     1       5.388  -0.480  -0.462  1.00  0.00     0.197 A 
ATOM     26  N   UNL     1       5.371   0.404   0.500  1.00  0.00    -0.219 NA
ATOM     27  S   UNL     1       6.908  -0.927  -1.083  1.00  0.00    -0.096 S 
ATOM     28  C   UNL     1       6.661   0.836   0.736  1.00  0.00     0.084 A 
ATOM     29  C   UNL     1       7.648   0.230  -0.050  1.00  0.00     0.056 A 
ATOM     30  C   UNL     1       7.053   1.814   1.673  1.00  0.00     0.030 A 
ATOM     31  C   UNL     1       9.005   0.573   0.059  1.00  0.00     0.021 A 
ATOM     32  C   UNL     1       8.403   2.170   1.783  1.00  0.00     0.002 A 
ATOM     33  C   UNL     1       9.365   1.556   0.985  1.00  0.00     0.002 A 
ENDBRANCH  23  25
ENDBRANCH  20  23
ENDBRANCH   4  20
TORSDOF 8
