REMARK SMILES CNC(=O)c1ccc(-c2cnc3ncc(Cc4ccc5ncccc5c4)n3n2)cc1F
REMARK SMILES IDX 9 1 10 2 11 3 12 4 13 5 14 6 15 7 27 8 28 9 8 10 5 11 6 12
REMARK SMILES IDX 30 13 7 14 29 15 31 16 3 17 1 18 2 19 4 21 16 22 17 23 18 24
REMARK SMILES IDX 26 25 19 26 25 27 20 28 24 29 21 30 23 31 22 32
REMARK H PARENT 2 20
REMARK Flexibility Score: inf
ROOT
ATOM      1  C   UNL     1       0.742  -2.030   1.389  1.00  0.00     0.110 C 
ATOM      2  C   UNL     1       0.736  -2.891   2.640  1.00  0.00     0.146 C 
ATOM      3  N   UNL     1      -0.144  -3.814   2.862  1.00  0.00    -0.217 NA
ATOM      4  C   UNL     1      -1.092  -3.944   1.896  1.00  0.00     0.250 A 
ATOM      5  N   UNL     1      -2.104  -4.787   1.848  1.00  0.00    -0.218 NA
ATOM      6  C   UNL     1      -2.776  -4.501   0.689  1.00  0.00     0.139 A 
ATOM      7  C   UNL     1      -2.175  -3.470   0.001  1.00  0.00     0.069 A 
ATOM      8  N   UNL     1      -1.090  -3.126   0.769  1.00  0.00    -0.200 N 
ATOM      9  N   UNL     1      -0.176  -2.157   0.473  1.00  0.00    -0.163 NA
ENDROOT
BRANCH   1  10
ATOM     10  C   UNL     1       1.805  -1.009   1.215  1.00  0.00     0.006 A 
ATOM     11  C   UNL     1       3.775   0.962   0.802  1.00  0.00     0.075 A 
ATOM     12  C   UNL     1       4.080  -0.224   1.491  1.00  0.00     0.017 A 
ATOM     13  C   UNL     1       2.476   1.139   0.322  1.00  0.00     0.136 A 
ATOM     14  C   UNL     1       3.103  -1.207   1.697  1.00  0.00     0.011 A 
ATOM     15  C   UNL     1       1.497   0.167   0.521  1.00  0.00     0.050 A 
ATOM     16  F   UNL     1       2.131   2.246  -0.356  1.00  0.00    -0.206 F 
BRANCH  11  17
ATOM     17  C   UNL     1       4.860   1.967   0.615  1.00  0.00     0.253 C 
ATOM     18  C   UNL     1       5.513   4.183  -0.230  1.00  0.00     0.143 C 
ATOM     19  N   UNL     1       4.519   3.177   0.055  1.00  0.00    -0.355 N 
ATOM     20  H   UNL     1       3.578   3.321  -0.293  1.00  0.00     0.163 HD
ATOM     21  O   UNL     1       6.005   1.692   0.965  1.00  0.00    -0.269 OA
ENDBRANCH  11  17
ENDBRANCH   1  10
BRANCH   7  22
ATOM     22  C   UNL     1      -2.522  -2.808  -1.283  1.00  0.00     0.093 C 
BRANCH  22  23
ATOM     23  C   UNL     1      -3.027  -1.392  -1.106  1.00  0.00    -0.041 A 
ATOM     24  C   UNL     1      -4.284  -1.142  -0.545  1.00  0.00     0.006 A 
ATOM     25  C   UNL     1      -2.233  -0.301  -1.484  1.00  0.00     0.014 A 
ATOM     26  C   UNL     1      -4.728   0.173  -0.365  1.00  0.00     0.029 A 
ATOM     27  C   UNL     1      -2.683   1.020  -1.297  1.00  0.00     0.000 A 
ATOM     28  C   UNL     1      -3.951   1.265  -0.730  1.00  0.00     0.070 A 
ATOM     29  C   UNL     1      -1.899   2.125  -1.661  1.00  0.00     0.012 A 
ATOM     30  N   UNL     1      -4.421   2.511  -0.531  1.00  0.00    -0.256 NA
ATOM     31  C   UNL     1      -2.383   3.411  -1.455  1.00  0.00     0.021 A 
ATOM     32  C   UNL     1      -3.638   3.550  -0.892  1.00  0.00     0.112 A 
ENDBRANCH  22  23
ENDBRANCH   7  22
TORSDOF 4
