REMARK SMILES CC(C)c1nc(N(C)S(C)(=O)=O)nc(-c2ccc(F)cc2)c1/C=C/[C@@H](O)C[C@@H](O)CC(=O)O
REMARK SMILES IDX 27 1 25 2 24 3 23 4 22 5 4 6 5 7 6 8 14 9 13 10 2 11 1 12
REMARK SMILES IDX 3 13 7 14 8 15 9 16 10 17 11 18 12 19 15 20 16 21 21 22
REMARK SMILES IDX 17 23 20 24 18 25 19 26 26 27 28 29 29 30 30 32 31 33 32 34
REMARK SMILES IDX 33 35
REMARK H PARENT 26 28 29 31 33 36
REMARK Flexibility Score: inf
ROOT
ATOM      1  C   UNL     1       3.758  -0.768  -1.653  1.00  0.00     0.068 C 
ENDROOT
BRANCH   1   2
ATOM      2  C   UNL     1       3.239  -1.070  -0.242  1.00  0.00     0.140 C 
BRANCH   2   3
ATOM      3  C   UNL     1       1.876  -0.485   0.020  1.00  0.00     0.005 C 
ATOM      4  C   UNL     1       0.717  -1.164   0.025  1.00  0.00     0.010 C 
BRANCH   4   5
ATOM      5  C   UNL     1      -0.575  -0.516   0.285  1.00  0.00     0.023 A 
ATOM      6  C   UNL     1      -1.519  -0.319  -0.725  1.00  0.00     0.056 A 
ATOM      7  N   UNL     1      -2.725   0.248  -0.481  1.00  0.00    -0.216 NA
ATOM      8  C   UNL     1      -2.965   0.655   0.768  1.00  0.00     0.239 A 
ATOM      9  C   UNL     1      -0.949  -0.059   1.553  1.00  0.00     0.083 A 
ATOM     10  N   UNL     1      -2.132   0.544   1.801  1.00  0.00    -0.211 NA
BRANCH   6  11
ATOM     11  C   UNL     1      -1.278  -0.776  -2.158  1.00  0.00     0.033 C 
ATOM     12  C   UNL     1      -1.846   0.215  -3.181  1.00  0.00     0.014 C 
ATOM     13  C   UNL     1      -1.877  -2.166  -2.375  1.00  0.00     0.014 C 
ENDBRANCH   6  11
BRANCH   8  14
ATOM     14  N   UNL     1      -4.246   1.204   1.005  1.00  0.00    -0.241 N 
ATOM     15  C   UNL     1      -4.317   2.129   2.156  1.00  0.00     0.167 C 
BRANCH  14  16
ATOM     16  S   UNL     1      -5.454   0.018   1.006  1.00  0.00     0.234 S 
ATOM     17  C   UNL     1      -5.686  -0.333  -0.727  1.00  0.00     0.183 C 
ATOM     18  O   UNL     1      -4.976  -1.177   1.669  1.00  0.00    -0.207 OA
ATOM     19  O   UNL     1      -6.683   0.650   1.453  1.00  0.00    -0.207 OA
ENDBRANCH  14  16
ENDBRANCH   8  14
BRANCH   9  20
ATOM     20  C   UNL     1      -0.100  -0.195   2.749  1.00  0.00     0.001 A 
ATOM     21  C   UNL     1       0.166  -1.456   3.315  1.00  0.00     0.013 A 
ATOM     22  C   UNL     1       0.454   0.945   3.361  1.00  0.00     0.013 A 
ATOM     23  C   UNL     1       0.979  -1.574   4.445  1.00  0.00     0.040 A 
ATOM     24  C   UNL     1       1.269   0.826   4.489  1.00  0.00     0.040 A 
ATOM     25  C   UNL     1       1.525  -0.433   5.019  1.00  0.00     0.123 A 
ATOM     26  F   UNL     1       2.307  -0.547   6.100  1.00  0.00    -0.207 F 
ENDBRANCH   9  20
ENDBRANCH   4   5
ENDBRANCH   2   3
BRANCH   2  27
ATOM     27  O   UNL     1       3.189  -2.489  -0.099  1.00  0.00    -0.389 OA
ATOM     28  H   UNL     1       2.989  -2.660   0.838  1.00  0.00     0.211 HD
ENDBRANCH   2  27
ENDBRANCH   1   2
BRANCH   1  29
ATOM     29  C   UNL     1       4.023   0.719  -1.912  1.00  0.00     0.128 C 
BRANCH  29  30
ATOM     30  O   UNL     1       5.000   1.184  -0.977  1.00  0.00    -0.392 OA
ATOM     31  H   UNL     1       5.826   0.687  -1.113  1.00  0.00     0.210 HD
ENDBRANCH  29  30
BRANCH  29  32
ATOM     32  C   UNL     1       4.527   0.948  -3.337  1.00  0.00     0.154 C 
BRANCH  32  33
ATOM     33  C   UNL     1       4.357   2.385  -3.743  1.00  0.00     0.305 C 
ATOM     34  O   UNL     1       3.430   3.126  -3.460  1.00  0.00    -0.252 OA
BRANCH  33  35
ATOM     35  O   UNL     1       5.349   2.808  -4.552  1.00  0.00    -0.481 OA
ATOM     36  H   UNL     1       5.117   3.740  -4.746  1.00  0.00     0.296 HD
ENDBRANCH  33  35
ENDBRANCH  32  33
ENDBRANCH  29  32
ENDBRANCH   1  29
TORSDOF 13
