REMARK SMILES NC(=O)c1cccc2cn(-c3ccc([C@@H]4CCCNC4)cc3)nc12
REMARK SMILES IDX 4 1 5 2 6 3 7 4 8 5 9 6 10 7 23 8 24 9 2 10 1 11 3 14 11 15
REMARK SMILES IDX 12 16 22 17 13 18 21 19 14 20 15 21 16 22 20 23 17 24 19 25
REMARK SMILES IDX 18 26
REMARK H PARENT 1 12 1 13 19 27
REMARK Flexibility Score: inf
ROOT
ATOM      1  C   UNL     1      -5.341  -0.891   0.298  1.00  0.00     0.067 A 
ATOM      2  C   UNL     1      -6.413  -0.122   0.824  1.00  0.00     0.016 A 
ATOM      3  C   UNL     1      -6.238   1.164   1.423  1.00  0.00     0.002 A 
ATOM      4  C   UNL     1      -4.988   1.801   1.552  1.00  0.00     0.012 A 
ATOM      5  C   UNL     1      -3.965   1.020   1.026  1.00  0.00     0.021 A 
ATOM      6  C   UNL     1      -2.645   1.371   1.007  1.00  0.00     0.123 A 
ATOM      7  N   UNL     1      -1.989   0.318   0.404  1.00  0.00    -0.240 N 
ATOM      8  N   UNL     1      -2.841  -0.687   0.069  1.00  0.00    -0.167 NA
ATOM      9  C   UNL     1      -4.074  -0.279   0.411  1.00  0.00     0.105 A 
ENDROOT
BRANCH   1  10
ATOM     10  C   UNL     1      -5.544  -2.203  -0.334  1.00  0.00     0.250 C 
ATOM     11  N   UNL     1      -6.498  -3.005   0.237  1.00  0.00    -0.366 N 
ATOM     12  H   UNL     1      -6.819  -2.851   1.182  1.00  0.00     0.159 HD
ATOM     13  H   UNL     1      -6.532  -3.952  -0.118  1.00  0.00     0.159 HD
ATOM     14  O   UNL     1      -4.921  -2.578  -1.315  1.00  0.00    -0.269 OA
ENDBRANCH   1  10
BRANCH   7  15
ATOM     15  C   UNL     1      -0.595   0.200   0.136  1.00  0.00     0.065 A 
ATOM     16  C   UNL     1       0.305   1.214   0.486  1.00  0.00     0.028 A 
ATOM     17  C   UNL     1      -0.110  -0.954  -0.494  1.00  0.00     0.028 A 
ATOM     18  C   UNL     1       1.670   1.070   0.210  1.00  0.00     0.006 A 
ATOM     19  C   UNL     1       1.254  -1.093  -0.767  1.00  0.00     0.006 A 
ATOM     20  C   UNL     1       2.162  -0.084  -0.418  1.00  0.00    -0.043 A 
BRANCH  20  21
ATOM     21  C   UNL     1       3.639  -0.260  -0.730  1.00  0.00     0.033 C 
ATOM     22  C   UNL     1       4.504  -0.240   0.541  1.00  0.00     0.011 C 
ATOM     23  C   UNL     1       4.144   0.787  -1.745  1.00  0.00     0.089 C 
ATOM     24  C   UNL     1       5.985  -0.355   0.183  1.00  0.00     0.016 C 
ATOM     25  N   UNL     1       5.568   0.611  -2.053  1.00  0.00    -0.316 NA
ATOM     26  C   UNL     1       6.391   0.697  -0.847  1.00  0.00     0.081 C 
ATOM     27  H   UNL     1       5.859   1.331  -2.714  1.00  0.00     0.122 HD
ENDBRANCH  20  21
ENDBRANCH   7  15
TORSDOF 3
