REMARK SMILES CC(C)[C@H](N)C(=O)OCCOCn1cnc2c(=O)nc(N)[nH]c21
REMARK SMILES IDX 9 1 8 2 6 3 7 4 4 5 2 6 1 7 3 8 5 9 10 12 11 13 12 14 13 15
REMARK SMILES IDX 14 16 23 17 15 18 16 19 22 20 17 21 20 22 18 24 19 25 21 26
REMARK H PARENT 5 10 5 11 22 23 21 27 21 28
REMARK Flexibility Score: inf
ROOT
ATOM      1  C   UNL     1      -0.196  -0.705   0.546  1.00  0.00     0.261 C 
ENDROOT
BRANCH   1   2
ATOM      2  O   UNL     1      -1.433  -0.235  -0.016  1.00  0.00    -0.462 OA
BRANCH   2   3
ATOM      3  C   UNL     1      -2.493  -1.079   0.124  1.00  0.00     0.323 C 
ATOM      4  O   UNL     1      -2.454  -2.163   0.695  1.00  0.00    -0.250 OA
BRANCH   3   5
ATOM      5  C   UNL     1      -3.749  -0.495  -0.550  1.00  0.00     0.164 C 
BRANCH   5   6
ATOM      6  C   UNL     1      -4.496   0.527   0.338  1.00  0.00     0.011 C 
ATOM      7  C   UNL     1      -4.943  -0.038   1.692  1.00  0.00     0.009 C 
ATOM      8  C   UNL     1      -3.678   1.803   0.558  1.00  0.00     0.009 C 
ENDBRANCH   5   6
BRANCH   5   9
ATOM      9  N   UNL     1      -4.660  -1.601  -0.941  1.00  0.00    -0.318 NA
ATOM     10  H   UNL     1      -4.159  -2.223  -1.579  1.00  0.00     0.119 HD
ATOM     11  H   UNL     1      -4.823  -2.183  -0.113  1.00  0.00     0.119 HD
ENDBRANCH   5   9
ENDBRANCH   3   5
ENDBRANCH   2   3
ENDBRANCH   1   2
BRANCH   1  12
ATOM     12  C   UNL     1       0.491  -1.708  -0.385  1.00  0.00     0.204 C 
BRANCH  12  13
ATOM     13  O   UNL     1       0.603  -1.261  -1.742  1.00  0.00    -0.357 OA
BRANCH  13  14
ATOM     14  C   UNL     1       1.414  -0.110  -1.960  1.00  0.00     0.288 C 
BRANCH  14  15
ATOM     15  N   UNL     1       2.804  -0.394  -1.681  1.00  0.00    -0.292 N 
ATOM     16  C   UNL     1       3.540  -1.400  -2.262  1.00  0.00     0.204 A 
ATOM     17  C   UNL     1       3.649   0.261  -0.843  1.00  0.00     0.148 A 
ATOM     18  N   UNL     1       4.782  -1.424  -1.818  1.00  0.00    -0.229 NA
ATOM     19  C   UNL     1       4.857  -0.385  -0.916  1.00  0.00     0.173 A 
ATOM     20  N   UNL     1       3.450   1.322  -0.046  1.00  0.00    -0.310 N 
ATOM     21  C   UNL     1       5.979   0.074  -0.084  1.00  0.00     0.302 C 
ATOM     22  C   UNL     1       4.513   1.699   0.736  1.00  0.00     0.202 C 
ATOM     23  H   UNL     1       2.551   1.734   0.164  1.00  0.00     0.171 HD
ATOM     24  O   UNL     1       7.086  -0.452  -0.121  1.00  0.00    -0.265 OA
ATOM     25  N   UNL     1       5.692   1.155   0.759  1.00  0.00    -0.173 NA
ATOM     26  N   UNL     1       4.226   2.750   1.547  1.00  0.00    -0.369 N 
ATOM     27  H   UNL     1       5.066   3.033   2.048  1.00  0.00     0.159 HD
ATOM     28  H   UNL     1       3.849   3.551   1.055  1.00  0.00     0.159 HD
ENDBRANCH  14  15
ENDBRANCH  13  14
ENDBRANCH  12  13
ENDBRANCH   1  12
TORSDOF 9
