REMARK SMILES C[C@@H](CC(C(=O)N1CCCC1)(c1ccccc1)c1ccccc1)N1CCOCC1
REMARK SMILES IDX 3 1 2 2 1 3 24 4 25 5 29 6 26 7 28 8 27 9 4 10 5 11 6 12
REMARK SMILES IDX 7 13 8 14 11 15 9 16 10 17 12 18 13 19 17 20 14 21 16 22
REMARK SMILES IDX 15 23 18 24 19 25 23 26 20 27 22 28 21 29
REMARK H PARENT
REMARK Flexibility Score: inf
ROOT
ATOM      1  C   UNL     1       1.150  -0.226   0.211  1.00  0.00     0.045 C 
ENDROOT
BRANCH   1   2
ATOM      2  C   UNL     1       1.964   0.368  -0.992  1.00  0.00     0.055 C 
ATOM      3  C   UNL     1       1.509  -0.179  -2.350  1.00  0.00     0.024 C 
BRANCH   2   4
ATOM      4  N   UNL     1       3.435   0.130  -0.857  1.00  0.00    -0.296 NA
ATOM      5  C   UNL     1       4.249   0.958  -1.786  1.00  0.00     0.113 C 
ATOM      6  C   UNL     1       3.968   0.254   0.516  1.00  0.00     0.113 C 
ATOM      7  C   UNL     1       5.120   2.021  -1.093  1.00  0.00     0.175 C 
ATOM      8  C   UNL     1       5.504   0.311   0.521  1.00  0.00     0.175 C 
ATOM      9  O   UNL     1       6.028   1.473  -0.133  1.00  0.00    -0.379 OA
ENDBRANCH   2   4
ENDBRANCH   1   2
BRANCH   1  10
ATOM     10  C   UNL     1      -0.451  -0.292   0.242  1.00  0.00     0.101 C 
BRANCH  10  11
ATOM     11  C   UNL     1      -1.036   1.155  -0.042  1.00  0.00     0.237 C 
ATOM     12  O   UNL     1      -0.300   2.068  -0.435  1.00  0.00    -0.273 OA
ATOM     13  N   UNL     1      -2.388   1.429   0.111  1.00  0.00    -0.342 N 
ATOM     14  C   UNL     1      -3.444   0.613   0.704  1.00  0.00     0.119 C 
ATOM     15  C   UNL     1      -2.915   2.721  -0.300  1.00  0.00     0.119 C 
ATOM     16  C   UNL     1      -4.685   1.502   0.701  1.00  0.00     0.023 C 
ATOM     17  C   UNL     1      -4.412   2.493  -0.419  1.00  0.00     0.023 C 
ENDBRANCH  10  11
BRANCH  10  18
ATOM     18  C   UNL     1      -0.815  -0.684   1.725  1.00  0.00    -0.028 A 
ATOM     19  C   UNL     1      -1.528  -1.847   2.073  1.00  0.00     0.005 A 
ATOM     20  C   UNL     1      -0.450   0.182   2.782  1.00  0.00     0.005 A 
ATOM     21  C   UNL     1      -1.826  -2.148   3.407  1.00  0.00     0.000 A 
ATOM     22  C   UNL     1      -0.749  -0.119   4.114  1.00  0.00     0.000 A 
ATOM     23  C   UNL     1      -1.433  -1.287   4.427  1.00  0.00     0.000 A 
ENDBRANCH  10  18
BRANCH  10  24
ATOM     24  C   UNL     1      -0.918  -1.348  -0.813  1.00  0.00    -0.028 A 
ATOM     25  C   UNL     1      -0.409  -2.667  -0.780  1.00  0.00     0.005 A 
ATOM     26  C   UNL     1      -1.814  -1.046  -1.856  1.00  0.00     0.005 A 
ATOM     27  C   UNL     1      -0.796  -3.632  -1.715  1.00  0.00     0.000 A 
ATOM     28  C   UNL     1      -2.203  -2.011  -2.793  1.00  0.00     0.000 A 
ATOM     29  C   UNL     1      -1.697  -3.304  -2.720  1.00  0.00     0.000 A 
ENDBRANCH  10  24
ENDBRANCH   1  10
TORSDOF 6
