REMARK SMILES Cc1cn2nc(-c3cc(=O)n4cc(N5CCNC6(CC6)C5)ccc4n3)cc(C)c2n1
REMARK SMILES IDX 7 1 8 2 9 3 10 4 11 5 12 6 13 7 22 8 23 9 24 10 25 11 6 12
REMARK SMILES IDX 1 13 2 14 3 15 30 16 4 17 29 18 5 19 27 20 26 21 28 22 14 23
REMARK SMILES IDX 15 24 21 25 16 26 18 27 17 28 19 29 20 30
REMARK H PARENT 17 31
REMARK Flexibility Score: inf
ROOT
ATOM      1  C   UNL     1       2.058  -0.147   0.333  1.00  0.00     0.098 C 
ATOM      2  C   UNL     1       1.574  -0.257   1.574  1.00  0.00     0.103 C 
ATOM      3  C   UNL     1       0.117  -0.288   1.749  1.00  0.00     0.258 C 
ATOM      4  O   UNL     1      -0.345  -0.262   2.894  1.00  0.00    -0.269 OA
ATOM      5  N   UNL     1      -0.625  -0.312   0.577  1.00  0.00    -0.266 N 
ATOM      6  C   UNL     1      -2.011  -0.400   0.658  1.00  0.00     0.122 C 
ATOM      7  C   UNL     1      -2.825  -0.427  -0.423  1.00  0.00     0.054 C 
ATOM      8  C   UNL     1      -2.178  -0.365  -1.726  1.00  0.00     0.031 C 
ATOM      9  C   UNL     1      -0.852  -0.236  -1.859  1.00  0.00     0.050 C 
ATOM     10  C   UNL     1       0.014  -0.197  -0.653  1.00  0.00     0.140 C 
ATOM     11  N   UNL     1       1.298  -0.075  -0.805  1.00  0.00    -0.228 NA
ENDROOT
BRANCH   1  12
ATOM     12  C   UNL     1       3.553  -0.043   0.224  1.00  0.00     0.110 C 
ATOM     13  C   UNL     1       9.247  -0.985   1.156  1.00  0.00     0.068 C 
ATOM     14  C   UNL     1       7.842  -0.655   0.826  1.00  0.00     0.058 A 
ATOM     15  C   UNL     1       6.692  -1.285   1.237  1.00  0.00     0.138 A 
ATOM     16  N   UNL     1       7.530   0.416   0.003  1.00  0.00    -0.232 NA
ATOM     17  N   UNL     1       5.656  -0.584   0.679  1.00  0.00    -0.220 N 
ATOM     18  C   UNL     1       6.214   0.424  -0.086  1.00  0.00     0.156 A 
ATOM     19  N   UNL     1       4.337  -0.843   0.884  1.00  0.00    -0.165 NA
ATOM     20  C   UNL     1       5.334   1.274  -0.811  1.00  0.00    -0.004 C 
ATOM     21  C   UNL     1       4.012   1.052  -0.682  1.00  0.00     0.039 C 
ATOM     22  C   UNL     1       5.822   2.390  -1.699  1.00  0.00     0.048 C 
ENDBRANCH   1  12
BRANCH   7  23
ATOM     23  N   UNL     1      -4.225  -0.496  -0.367  1.00  0.00    -0.367 N 
ATOM     24  C   UNL     1      -5.009  -1.279  -1.359  1.00  0.00     0.132 C 
ATOM     25  C   UNL     1      -4.967  -0.178   0.876  1.00  0.00     0.139 C 
ATOM     26  C   UNL     1      -6.481  -1.502  -0.947  1.00  0.00     0.103 C 
ATOM     27  C   UNL     1      -6.359   0.406   0.560  1.00  0.00     0.036 C 
ATOM     28  N   UNL     1      -7.131  -0.237  -0.553  1.00  0.00    -0.308 NA
ATOM     29  C   UNL     1      -7.168   0.944   1.729  1.00  0.00     0.026 C 
ATOM     30  C   UNL     1      -6.565   1.901   0.748  1.00  0.00     0.026 C 
ATOM     31  H   UNL     1      -7.100   0.397  -1.357  1.00  0.00     0.123 HD
ENDBRANCH   7  23
TORSDOF 2
