REMARK SMILES Cc1ncc(OC[C@@]2(c3cccc(F)c3)C[C@H]2C(=O)Nc2ccc(F)cn2)c(C)n1
REMARK SMILES IDX 8 1 16 2 17 3 7 4 6 5 5 6 1 7 2 8 3 9 30 10 4 11 28 12 29 13
REMARK SMILES IDX 9 14 10 15 15 16 11 17 13 18 12 19 14 20 18 21 19 22 20 23
REMARK SMILES IDX 21 25 22 26 27 27 23 28 26 29 24 30 25 31
REMARK H PARENT 20 24
REMARK Flexibility Score: inf
ROOT
ATOM      1  C   UNL     1       0.344   2.001   1.443  1.00  0.00     0.042 C 
ATOM      2  C   UNL     1       1.189   2.220   2.686  1.00  0.00     0.030 C 
ATOM      3  C   UNL     1       1.823   1.593   1.470  1.00  0.00     0.094 C 
ENDROOT
BRANCH   1   4
ATOM      4  C   UNL     1      -0.718   0.909   1.496  1.00  0.00     0.242 C 
BRANCH   4   5
ATOM      5  O   UNL     1      -0.781   0.286   0.210  1.00  0.00    -0.489 OA
BRANCH   5   6
ATOM      6  C   UNL     1      -1.642  -0.758   0.064  1.00  0.00     0.158 A 
ATOM      7  C   UNL     1      -4.204  -4.028  -0.684  1.00  0.00     0.089 C 
ATOM      8  C   UNL     1      -3.314  -2.855  -0.421  1.00  0.00     0.125 A 
ATOM      9  N   UNL     1      -3.260  -2.377   0.835  1.00  0.00    -0.238 NA
ATOM     10  N   UNL     1      -2.593  -2.376  -1.450  1.00  0.00    -0.235 NA
ATOM     11  C   UNL     1      -2.425  -1.336   1.043  1.00  0.00     0.161 A 
ATOM     12  C   UNL     1      -1.767  -1.332  -1.194  1.00  0.00     0.083 A 
ATOM     13  C   UNL     1      -0.992  -0.798  -2.364  1.00  0.00     0.071 C 
ENDBRANCH   5   6
ENDBRANCH   4   5
ENDBRANCH   1   4
BRANCH   1  14
ATOM     14  C   UNL     1      -0.037   3.220   0.607  1.00  0.00    -0.035 A 
ATOM     15  C   UNL     1      -0.656   4.344   1.188  1.00  0.00     0.004 A 
ATOM     16  C   UNL     1       0.192   3.257  -0.778  1.00  0.00     0.043 A 
ATOM     17  C   UNL     1      -1.017   5.460   0.424  1.00  0.00     0.003 A 
ATOM     18  C   UNL     1      -0.170   4.368  -1.534  1.00  0.00     0.123 A 
ATOM     19  C   UNL     1      -0.771   5.471  -0.945  1.00  0.00     0.039 A 
ATOM     20  F   UNL     1       0.064   4.370  -2.853  1.00  0.00    -0.207 F 
ENDBRANCH   1  14
BRANCH   3  21
ATOM     21  C   UNL     1       2.192   0.148   1.461  1.00  0.00     0.229 C 
ATOM     22  O   UNL     1       2.287  -0.460   2.517  1.00  0.00    -0.274 OA
ATOM     23  N   UNL     1       2.361  -0.342   0.196  1.00  0.00    -0.310 N 
ATOM     24  H   UNL     1       2.223   0.273  -0.593  1.00  0.00     0.171 HD
BRANCH  23  25
ATOM     25  C   UNL     1       2.635  -1.651  -0.194  1.00  0.00     0.132 A 
ATOM     26  C   UNL     1       2.816  -2.709   0.690  1.00  0.00     0.050 A 
ATOM     27  N   UNL     1       2.699  -1.803  -1.537  1.00  0.00    -0.236 NA
ATOM     28  C   UNL     1       3.066  -3.982   0.176  1.00  0.00     0.045 A 
ATOM     29  C   UNL     1       2.943  -3.051  -2.008  1.00  0.00     0.152 A 
ATOM     30  C   UNL     1       3.129  -4.152  -1.195  1.00  0.00     0.141 A 
ATOM     31  F   UNL     1       3.367  -5.359  -1.721  1.00  0.00    -0.205 F 
ENDBRANCH  23  25
ENDBRANCH   3  21
TORSDOF 6
