REMARK SMILES O=C(/C=C\n1cnc(-c2cc(C(F)(F)F)cc(C(F)(F)F)c2)n1)NNc1cnccn1
REMARK SMILES IDX 3 1 4 2 2 3 1 4 24 5 25 7 26 9 27 10 31 11 28 12 30 13 29 14
REMARK SMILES IDX 5 15 6 16 23 17 7 18 8 19 9 20 10 21 22 22 11 23 17 24 16 25
REMARK SMILES IDX 12 26 13 27 14 28 15 29 18 30 19 31 20 32 21 33
REMARK H PARENT 24 6 25 8
REMARK Flexibility Score: inf
ROOT
ATOM      1  C   UNL     1       1.940   2.456  -2.103  1.00  0.00     0.093 C 
ATOM      2  C   UNL     1       0.820   2.382  -1.370  1.00  0.00     0.120 C 
ENDROOT
BRANCH   1   3
ATOM      3  C   UNL     1       2.652   1.333  -2.742  1.00  0.00     0.263 C 
ATOM      4  O   UNL     1       2.072   0.438  -3.345  1.00  0.00    -0.268 OA
ATOM      5  N   UNL     1       4.018   1.398  -2.571  1.00  0.00    -0.265 N 
ATOM      6  H   UNL     1       4.402   1.920  -1.782  1.00  0.00     0.191 HD
BRANCH   5   7
ATOM      7  N   UNL     1       4.731   0.198  -2.846  1.00  0.00    -0.280 N 
ATOM      8  H   UNL     1       4.131  -0.459  -3.360  1.00  0.00     0.190 HD
BRANCH   7   9
ATOM      9  C   UNL     1       5.183  -0.413  -1.647  1.00  0.00     0.163 A 
ATOM     10  C   UNL     1       5.773  -1.680  -1.695  1.00  0.00     0.159 A 
ATOM     11  N   UNL     1       5.100   0.262  -0.469  1.00  0.00    -0.235 NA
ATOM     12  N   UNL     1       6.262  -2.323  -0.605  1.00  0.00    -0.259 NA
ATOM     13  C   UNL     1       5.589  -0.380   0.620  1.00  0.00     0.133 A 
ATOM     14  C   UNL     1       6.155  -1.641   0.555  1.00  0.00     0.131 A 
ENDBRANCH   7   9
ENDBRANCH   5   7
ENDBRANCH   1   3
BRANCH   2  15
ATOM     15  N   UNL     1       0.080   1.297  -0.890  1.00  0.00    -0.227 N 
ATOM     16  C   UNL     1       0.373  -0.053  -0.898  1.00  0.00     0.225 A 
ATOM     17  N   UNL     1      -1.105   1.451  -0.233  1.00  0.00    -0.147 NA
ATOM     18  N   UNL     1      -0.571  -0.751  -0.313  1.00  0.00    -0.215 NA
ATOM     19  C   UNL     1      -1.473   0.201   0.069  1.00  0.00     0.181 A 
BRANCH  19  20
ATOM     20  C   UNL     1      -2.719  -0.138   0.753  1.00  0.00     0.022 A 
ATOM     21  C   UNL     1      -3.638   0.860   1.113  1.00  0.00     0.025 A 
ATOM     22  C   UNL     1      -3.021  -1.474   1.053  1.00  0.00     0.025 A 
ATOM     23  C   UNL     1      -4.848   0.539   1.750  1.00  0.00     0.057 A 
ATOM     24  C   UNL     1      -4.215  -1.822   1.707  1.00  0.00     0.057 A 
ATOM     25  C   UNL     1      -5.123  -0.807   2.046  1.00  0.00     0.026 A 
BRANCH  23  26
ATOM     26  C   UNL     1      -5.819   1.627   2.143  1.00  0.00     0.416 C 
ATOM     27  F   UNL     1      -5.760   2.720   1.331  1.00  0.00    -0.166 F 
ATOM     28  F   UNL     1      -7.117   1.214   2.118  1.00  0.00    -0.166 F 
ATOM     29  F   UNL     1      -5.596   2.084   3.406  1.00  0.00    -0.166 F 
ENDBRANCH  23  26
BRANCH  24  30
ATOM     30  C   UNL     1      -4.524  -3.271   2.005  1.00  0.00     0.416 C 
ATOM     31  F   UNL     1      -5.398  -3.427   3.039  1.00  0.00    -0.166 F 
ATOM     32  F   UNL     1      -5.086  -3.908   0.942  1.00  0.00    -0.166 F 
ATOM     33  F   UNL     1      -3.422  -3.994   2.340  1.00  0.00    -0.166 F 
ENDBRANCH  24  30
ENDBRANCH  19  20
ENDBRANCH   2  15
TORSDOF 7
