REMARK SMILES CNc1cc2[nH]c(=O)n(-c3ccc(NC(=O)NS(=O)(=O)c4ccc(Cl)s4)cc3)c(=O)c2cc1F
REMARK SMILES IDX 10 1 11 2 12 3 13 4 27 5 28 6 9 7 3 8 33 9 4 10 34 11 32 12
REMARK SMILES IDX 5 13 31 14 6 15 29 16 7 17 30 19 8 20 2 21 1 22 14 24 15 25
REMARK SMILES IDX 16 27 17 28 18 30 19 31 20 32 21 33 22 34 26 35 23 36 24 37
REMARK SMILES IDX 25 38
REMARK H PARENT 6 18 2 23 14 26 17 29
REMARK Flexibility Score: inf
ROOT
ATOM      1  C   UNL     1      -0.508   0.313  -0.637  1.00  0.00     0.054 A 
ATOM      2  C   UNL     1      -0.059   1.387  -1.422  1.00  0.00     0.029 A 
ATOM      3  C   UNL     1       1.267   1.838  -1.356  1.00  0.00     0.028 A 
ATOM      4  C   UNL     1       2.188   1.231  -0.498  1.00  0.00     0.043 A 
ATOM      5  C   UNL     1       1.762   0.159   0.279  1.00  0.00     0.028 A 
ATOM      6  C   UNL     1       0.434  -0.292   0.208  1.00  0.00     0.029 A 
ENDROOT
BRANCH   1   7
ATOM      7  N   UNL     1      -1.884  -0.137  -0.682  1.00  0.00    -0.228 N 
ATOM      8  C   UNL     1      -6.937  -0.668  -0.899  1.00  0.00     0.072 A 
ATOM      9  C   UNL     1      -6.655   0.687  -1.168  1.00  0.00     0.147 A 
ATOM     10  C   UNL     1      -5.849  -1.523  -0.691  1.00  0.00     0.055 A 
ATOM     11  F   UNL     1      -7.671   1.532  -1.406  1.00  0.00    -0.205 F 
ATOM     12  C   UNL     1      -5.358   1.190  -1.173  1.00  0.00     0.057 A 
ATOM     13  C   UNL     1      -4.541  -1.022  -0.695  1.00  0.00     0.057 A 
ATOM     14  C   UNL     1      -4.294   0.322  -0.928  1.00  0.00     0.067 A 
ATOM     15  N   UNL     1      -3.472  -1.877  -0.477  1.00  0.00    -0.306 N 
ATOM     16  C   UNL     1      -2.902   0.810  -0.899  1.00  0.00     0.268 C 
ATOM     17  C   UNL     1      -2.157  -1.498  -0.493  1.00  0.00     0.333 C 
ATOM     18  H   UNL     1      -3.624  -2.869  -0.342  1.00  0.00     0.171 HD
ATOM     19  O   UNL     1      -2.750   2.026  -1.019  1.00  0.00    -0.268 OA
ATOM     20  O   UNL     1      -1.329  -2.404  -0.379  1.00  0.00    -0.247 OA
BRANCH   8  21
ATOM     21  N   UNL     1      -8.263  -1.118  -0.977  1.00  0.00    -0.386 N 
ATOM     22  C   UNL     1      -8.664  -2.297  -0.234  1.00  0.00     0.139 C 
ATOM     23  H   UNL     1      -8.915  -0.337  -0.875  1.00  0.00     0.160 HD
ENDBRANCH   8  21
ENDBRANCH   1   7
BRANCH   4  24
ATOM     24  N   UNL     1       3.491   1.765  -0.468  1.00  0.00    -0.307 N 
ATOM     25  C   UNL     1       4.544   1.366   0.314  1.00  0.00     0.333 C 
ATOM     26  H   UNL     1       3.654   2.560  -1.066  1.00  0.00     0.171 HD
ATOM     27  O   UNL     1       4.561   0.428   1.091  1.00  0.00    -0.247 OA
ATOM     28  N   UNL     1       5.664   2.162   0.114  1.00  0.00    -0.230 N 
ATOM     29  H   UNL     1       5.647   2.978  -0.484  1.00  0.00     0.185 HD
BRANCH  28  30
ATOM     30  S   UNL     1       6.999   2.138   1.104  1.00  0.00     0.275 S 
ATOM     31  O   UNL     1       8.050   2.763   0.325  1.00  0.00    -0.200 OA
ATOM     32  O   UNL     1       6.614   2.678   2.389  1.00  0.00    -0.200 OA
BRANCH  30  33
ATOM     33  C   UNL     1       7.561   0.467   1.325  1.00  0.00     0.141 A 
ATOM     34  C   UNL     1       8.065  -0.455   0.419  1.00  0.00     0.036 A 
ATOM     35  S   UNL     1       7.523  -0.176   2.913  1.00  0.00    -0.110 S 
ATOM     36  C   UNL     1       8.409  -1.693   1.040  1.00  0.00     0.034 A 
ATOM     37  C   UNL     1       8.148  -1.656   2.387  1.00  0.00     0.094 A 
ATOM     38  Cl  UNL     1       8.403  -2.928   3.509  1.00  0.00    -0.072 Cl
ENDBRANCH  30  33
ENDBRANCH  28  30
ENDBRANCH   4  24
TORSDOF 5
