REMARK SMILES CC1(C)NC(=O)N(c2ccc([N+](=O)[O-])c(C(F)(F)F)c2)C1=O
REMARK SMILES IDX 8 1 9 2 10 3 11 4 15 5 20 6 7 7 1 8 2 9 3 10 4 11 21 12 5 13
REMARK SMILES IDX 22 15 6 16 16 17 17 18 18 19 19 20 12 21 13 22 14 23
REMARK H PARENT 4 14
REMARK Flexibility Score: inf
ROOT
ATOM      1  C   UNL     1       0.592  -0.174   0.021  1.00  0.00     0.055 A 
ATOM      2  C   UNL     1       1.009  -1.509   0.161  1.00  0.00     0.034 A 
ATOM      3  C   UNL     1       2.364  -1.857   0.223  1.00  0.00     0.088 A 
ATOM      4  C   UNL     1       3.338  -0.859   0.142  1.00  0.00     0.281 A 
ATOM      5  C   UNL     1       2.984   0.483  -0.018  1.00  0.00     0.135 A 
ATOM      6  C   UNL     1       1.606   0.802  -0.066  1.00  0.00     0.047 A 
ENDROOT
BRANCH   1   7
ATOM      7  N   UNL     1      -0.796   0.176  -0.034  1.00  0.00    -0.230 N 
ATOM      8  C   UNL     1      -3.949  -0.479  -1.172  1.00  0.00     0.045 C 
ATOM      9  C   UNL     1      -3.177   0.084   0.015  1.00  0.00     0.116 C 
ATOM     10  C   UNL     1      -3.997   0.077   1.298  1.00  0.00     0.045 C 
ATOM     11  N   UNL     1      -2.667   1.393  -0.271  1.00  0.00    -0.323 N 
ATOM     12  C   UNL     1      -1.857  -0.681   0.204  1.00  0.00     0.260 C 
ATOM     13  C   UNL     1      -1.293   1.426  -0.335  1.00  0.00     0.329 C 
ATOM     14  H   UNL     1      -3.214   2.211  -0.509  1.00  0.00     0.166 HD
ATOM     15  O   UNL     1      -1.832  -1.866   0.519  1.00  0.00    -0.271 OA
ATOM     16  O   UNL     1      -0.711   2.454  -0.641  1.00  0.00    -0.248 OA
ENDBRANCH   1   7
BRANCH   5  17
ATOM     17  C   UNL     1       4.013   1.579  -0.137  1.00  0.00     0.423 C 
ATOM     18  F   UNL     1       4.512   1.963   1.066  1.00  0.00    -0.166 F 
ATOM     19  F   UNL     1       3.512   2.712  -0.705  1.00  0.00    -0.166 F 
ATOM     20  F   UNL     1       5.072   1.230  -0.915  1.00  0.00    -0.166 F 
ENDBRANCH   5  17
BRANCH   4  21
ATOM     21  N   UNL     1       4.732  -1.268   0.249  1.00  0.00     0.063 N 
ATOM     22  O   UNL     1       5.422  -0.693   1.098  1.00  0.00    -0.258 OA
ATOM     23  O   UNL     1       5.109  -2.179  -0.499  1.00  0.00    -0.258 OA
ENDBRANCH   4  21
TORSDOF 3
