REMARK SMILES Cc1cccc(N(C)C(=S)Oc2ccc3ccccc3c2)c1
REMARK SMILES IDX 9 1 10 2 7 3 8 4 6 5 1 6 2 7 3 8 22 9 4 10 5 11 11 12 12 13
REMARK SMILES IDX 13 14 21 15 14 16 20 17 15 18 19 19 16 20 18 21 17 22
REMARK H PARENT
REMARK Flexibility Score: inf
ROOT
ATOM      1  C   UNL     1       0.595   0.062   0.266  1.00  0.00     0.269 C 
ATOM      2  S   UNL     1       0.506   0.641  -1.308  1.00  0.00    -0.018 S 
ENDROOT
BRANCH   1   3
ATOM      3  N   UNL     1       1.721  -0.004   1.112  1.00  0.00    -0.306 N 
ATOM      4  C   UNL     1       1.511  -0.206   2.548  1.00  0.00     0.154 C 
BRANCH   3   5
ATOM      5  C   UNL     1       3.069   0.253   0.692  1.00  0.00     0.045 A 
ATOM      6  C   UNL     1       5.407  -0.609  -2.198  1.00  0.00     0.044 C 
ATOM      7  C   UNL     1       4.906  -0.061  -0.895  1.00  0.00    -0.049 A 
ATOM      8  C   UNL     1       5.738   0.714  -0.083  1.00  0.00     0.003 A 
ATOM      9  C   UNL     1       3.575  -0.280  -0.502  1.00  0.00     0.029 A 
ATOM     10  C   UNL     1       5.258   1.233   1.117  1.00  0.00     0.002 A 
ATOM     11  C   UNL     1       3.938   0.995   1.506  1.00  0.00     0.026 A 
ENDBRANCH   3   5
ENDBRANCH   1   3
BRANCH   1  12
ATOM     12  O   UNL     1      -0.583  -0.354   0.925  1.00  0.00    -0.432 OA
BRANCH  12  13
ATOM     13  C   UNL     1      -1.868  -0.477   0.345  1.00  0.00     0.130 A 
ATOM     14  C   UNL     1      -2.200  -1.649  -0.324  1.00  0.00     0.048 A 
ATOM     15  C   UNL     1      -2.787   0.552   0.533  1.00  0.00     0.056 A 
ATOM     16  C   UNL     1      -3.484  -1.781  -0.851  1.00  0.00     0.012 A 
ATOM     17  C   UNL     1      -4.080   0.426   0.006  1.00  0.00    -0.015 A 
ATOM     18  C   UNL     1      -4.434  -0.754  -0.696  1.00  0.00    -0.018 A 
ATOM     19  C   UNL     1      -5.033   1.446   0.160  1.00  0.00     0.009 A 
ATOM     20  C   UNL     1      -5.730  -0.874  -1.222  1.00  0.00     0.009 A 
ATOM     21  C   UNL     1      -6.317   1.308  -0.370  1.00  0.00     0.001 A 
ATOM     22  C   UNL     1      -6.664   0.150  -1.060  1.00  0.00     0.001 A 
ENDBRANCH  12  13
ENDBRANCH   1  12
TORSDOF 4
