REMARK SMILES Nc1nc(=O)[nH]cc1F
REMARK SMILES IDX 1 1 2 2 3 3 4 4 5 5 6 6 7 7 8 8 9 9
REMARK H PARENT 1 10 1 11 6 12
REMARK Flexibility Score: inf
ROOT
ATOM      1  N   UNL     1       2.257  -0.501   0.009  1.00  0.00    -0.381 N 
ATOM      2  C   UNL     1       0.902  -0.296   0.039  1.00  0.00     0.166 C 
ATOM      3  N   UNL     1       0.144  -1.355   0.078  1.00  0.00    -0.173 NA
ATOM      4  C   UNL     1      -1.223  -1.205   0.116  1.00  0.00     0.347 C 
ATOM      5  O   UNL     1      -1.997  -2.157   0.155  1.00  0.00    -0.246 OA
ATOM      6  N   UNL     1      -1.744   0.072   0.103  1.00  0.00    -0.310 N 
ATOM      7  C   UNL     1      -0.977   1.200   0.051  1.00  0.00     0.130 C 
ATOM      8  C   UNL     1       0.346   1.083   0.015  1.00  0.00     0.181 C 
ATOM      9  F   UNL     1       1.199   2.119  -0.051  1.00  0.00    -0.201 F 
ATOM     10  H   UNL     1       2.510  -1.451  -0.245  1.00  0.00     0.158 HD
ATOM     11  H   UNL     1       2.818   0.213  -0.442  1.00  0.00     0.158 HD
ATOM     12  H   UNL     1      -2.754   0.120   0.133  1.00  0.00     0.171 HD
ENDROOT
TORSDOF 0
