REMARK SMILES NC1(C(=O)N[C@@H](CCO)c2ccc(Cl)cc2)CCN(c2nc[nH]c3nccc2-3)CC1
REMARK SMILES IDX 6 1 5 2 3 3 4 4 2 6 17 7 30 8 18 9 29 10 19 11 1 12 20 15
REMARK SMILES IDX 21 16 28 17 22 18 24 19 27 20 23 21 25 22 26 23 7 25 8 26
REMARK SMILES IDX 9 27 10 29 11 30 16 31 12 32 15 33 13 34 14 35
REMARK H PARENT 5 5 1 13 1 14 23 24 9 28
REMARK Flexibility Score: inf
ROOT
ATOM      1  C   UNL     1       2.313   0.100  -0.122  1.00  0.00     0.114 C 
ENDROOT
BRANCH   1   2
ATOM      2  N   UNL     1       1.105   0.925  -0.110  1.00  0.00    -0.348 N 
ATOM      3  C   UNL     1       1.165   2.272  -0.453  1.00  0.00     0.240 C 
ATOM      4  O   UNL     1       2.242   2.845  -0.699  1.00  0.00    -0.273 OA
ATOM      5  H   UNL     1       0.223   0.458  -0.345  1.00  0.00     0.164 HD
BRANCH   3   6
ATOM      6  C   UNL     1      -0.204   3.033  -0.526  1.00  0.00     0.099 C 
ATOM      7  C   UNL     1      -0.865   3.104   0.877  1.00  0.00     0.054 C 
ATOM      8  C   UNL     1      -1.105   2.382  -1.595  1.00  0.00     0.054 C 
ATOM      9  C   UNL     1      -1.584   1.812   1.287  1.00  0.00     0.120 C 
ATOM     10  C   UNL     1      -2.492   2.095  -1.033  1.00  0.00     0.120 C 
ATOM     11  N   UNL     1      -2.386   1.249   0.179  1.00  0.00    -0.356 N 
BRANCH   6  12
ATOM     12  N   UNL     1       0.080   4.465  -0.943  1.00  0.00    -0.317 NA
ATOM     13  H   UNL     1       0.722   4.868  -0.253  1.00  0.00     0.119 HD
ATOM     14  H   UNL     1       0.667   4.453  -1.790  1.00  0.00     0.119 HD
ENDBRANCH   6  12
BRANCH  11  15
ATOM     15  C   UNL     1      -2.505  -0.160   0.058  1.00  0.00     0.141 C 
ATOM     16  N   UNL     1      -1.897  -0.785  -1.042  1.00  0.00    -0.221 NA
ATOM     17  C   UNL     1      -3.209  -0.884   0.971  1.00  0.00     0.061 C 
ATOM     18  C   UNL     1      -2.058  -2.085  -1.177  1.00  0.00     0.200 C 
ATOM     19  C   UNL     1      -3.365  -2.352   0.755  1.00  0.00     0.142 C 
ATOM     20  C   UNL     1      -3.978  -0.637   2.148  1.00  0.00     0.036 C 
ATOM     21  N   UNL     1      -2.748  -2.902  -0.315  1.00  0.00    -0.330 N 
ATOM     22  N   UNL     1      -4.114  -2.908   1.669  1.00  0.00    -0.238 NA
ATOM     23  C   UNL     1      -4.478  -1.846   2.497  1.00  0.00     0.114 C 
ATOM     24  H   UNL     1      -2.938  -3.879  -0.514  1.00  0.00     0.169 HD
ENDBRANCH  11  15
ENDBRANCH   3   6
ENDBRANCH   1   2
BRANCH   1  25
ATOM     25  C   UNL     1       3.280   0.453   1.028  1.00  0.00     0.058 C 
BRANCH  25  26
ATOM     26  C   UNL     1       4.654  -0.179   0.889  1.00  0.00     0.158 C 
BRANCH  26  27
ATOM     27  O   UNL     1       5.341   0.375  -0.247  1.00  0.00    -0.396 OA
ATOM     28  H   UNL     1       5.388   1.354  -0.162  1.00  0.00     0.210 HD
ENDBRANCH  26  27
ENDBRANCH  25  26
ENDBRANCH   1  25
BRANCH   1  29
ATOM     29  C   UNL     1       1.925  -1.375  -0.077  1.00  0.00    -0.025 A 
ATOM     30  C   UNL     1       1.164  -1.921   0.970  1.00  0.00     0.007 A 
ATOM     31  C   UNL     1       2.367  -2.240  -1.098  1.00  0.00     0.007 A 
ATOM     32  C   UNL     1       0.892  -3.304   1.014  1.00  0.00     0.021 A 
ATOM     33  C   UNL     1       2.109  -3.618  -1.045  1.00  0.00     0.021 A 
ATOM     34  C   UNL     1       1.377  -4.148   0.019  1.00  0.00     0.041 A 
ATOM     35  Cl  UNL     1       1.113  -5.847   0.112  1.00  0.00    -0.084 Cl
ENDBRANCH   1  29
TORSDOF 8
