REMARK SMILES Cc1cnc(C(=O)NCCc2ccc(S(=O)(=O)NC(=O)NC3CCCCC3)cc2)cn1
REMARK SMILES IDX 11 1 12 2 13 3 14 4 28 5 29 6 10 7 9 8 8 9 6 10 7 11 5 13
REMARK SMILES IDX 1 14 2 15 3 16 31 17 4 18 30 19 15 20 16 21 17 22 18 23
REMARK SMILES IDX 19 24 20 26 21 27 22 29 23 30 27 31 24 32 26 33 25 34
REMARK H PARENT 8 12 18 25 21 28
REMARK Flexibility Score: inf
ROOT
ATOM      1  C   UNL     1       1.815  -1.119  -1.653  1.00  0.00    -0.046 A 
ATOM      2  C   UNL     1       0.883  -2.116  -1.332  1.00  0.00     0.005 A 
ATOM      3  C   UNL     1       0.058  -1.977  -0.215  1.00  0.00     0.022 A 
ATOM      4  C   UNL     1       0.155  -0.830   0.578  1.00  0.00     0.087 A 
ATOM      5  C   UNL     1       1.090   0.164   0.278  1.00  0.00     0.022 A 
ATOM      6  C   UNL     1       1.913   0.020  -0.839  1.00  0.00     0.005 A 
ENDROOT
BRANCH   1   7
ATOM      7  C   UNL     1       2.737  -1.282  -2.841  1.00  0.00     0.057 C 
BRANCH   7   8
ATOM      8  C   UNL     1       3.933  -2.195  -2.542  1.00  0.00     0.121 C 
BRANCH   8   9
ATOM      9  N   UNL     1       4.745  -1.730  -1.430  1.00  0.00    -0.350 N 
ATOM     10  C   UNL     1       5.561  -0.617  -1.569  1.00  0.00     0.271 C 
ATOM     11  O   UNL     1       5.769  -0.063  -2.642  1.00  0.00    -0.267 OA
ATOM     12  H   UNL     1       4.402  -1.953  -0.502  1.00  0.00     0.163 HD
BRANCH  10  13
ATOM     13  C   UNL     1       6.150  -0.098  -0.308  1.00  0.00     0.146 A 
ATOM     14  C   UNL     1       7.749   1.299   3.298  1.00  0.00     0.068 C 
ATOM     15  C   UNL     1       7.186   0.782   2.012  1.00  0.00     0.056 A 
ATOM     16  C   UNL     1       6.530   1.638   1.130  1.00  0.00     0.135 A 
ATOM     17  N   UNL     1       7.331  -0.540   1.739  1.00  0.00    -0.258 NA
ATOM     18  N   UNL     1       5.994   1.224  -0.042  1.00  0.00    -0.248 NA
ATOM     19  C   UNL     1       6.805  -0.958   0.560  1.00  0.00     0.145 A 
ENDBRANCH  10  13
ENDBRANCH   8   9
ENDBRANCH   7   8
ENDBRANCH   1   7
BRANCH   4  20
ATOM     20  S   UNL     1      -0.860  -0.669   2.024  1.00  0.00     0.265 S 
ATOM     21  O   UNL     1      -1.325  -1.975   2.430  1.00  0.00    -0.201 OA
ATOM     22  O   UNL     1      -0.143   0.178   2.958  1.00  0.00    -0.201 OA
BRANCH  20  23
ATOM     23  N   UNL     1      -2.143   0.248   1.506  1.00  0.00    -0.231 N 
ATOM     24  C   UNL     1      -3.044  -0.129   0.527  1.00  0.00     0.328 C 
ATOM     25  H   UNL     1      -2.166   1.167   1.923  1.00  0.00     0.185 HD
ATOM     26  O   UNL     1      -2.977  -1.179  -0.088  1.00  0.00    -0.248 OA
ATOM     27  N   UNL     1      -4.008   0.817   0.328  1.00  0.00    -0.335 N 
ATOM     28  H   UNL     1      -4.097   1.543   1.020  1.00  0.00     0.165 HD
BRANCH  27  29
ATOM     29  C   UNL     1      -5.139   0.580  -0.562  1.00  0.00     0.083 C 
ATOM     30  C   UNL     1      -6.178  -0.322   0.129  1.00  0.00     0.025 C 
ATOM     31  C   UNL     1      -5.732   1.915  -1.043  1.00  0.00     0.025 C 
ATOM     32  C   UNL     1      -7.585  -0.072  -0.395  1.00  0.00     0.002 C 
ATOM     33  C   UNL     1      -6.883   2.377  -0.155  1.00  0.00     0.002 C 
ATOM     34  C   UNL     1      -8.034   1.369  -0.145  1.00  0.00     0.000 C 
ENDBRANCH  27  29
ENDBRANCH  20  23
ENDBRANCH   4  20
TORSDOF 7
