REMARK SMILES Nc1ccn([C@@H]2O[C@H](CO)[C@@H](O)[C@@H]2O)c(=O)n1
REMARK SMILES IDX 6 1 7 2 8 3 11 4 13 5 5 6 1 7 2 8 3 11 17 12 4 13 15 14
REMARK SMILES IDX 16 15 14 16 9 18 10 19 12 21
REMARK H PARENT 1 9 1 10 14 17 10 20 12 22
REMARK Flexibility Score: inf
ROOT
ATOM      1  C   UNL     1      -0.171  -1.086   0.278  1.00  0.00     0.255 C 
ATOM      2  O   UNL     1      -0.939  -0.726  -0.891  1.00  0.00    -0.347 OA
ATOM      3  C   UNL     1      -2.314  -0.518  -0.487  1.00  0.00     0.178 C 
ATOM      4  C   UNL     1      -2.431  -1.023   0.954  1.00  0.00     0.179 C 
ATOM      5  C   UNL     1      -1.044  -0.765   1.509  1.00  0.00     0.196 C 
ENDROOT
BRANCH   1   6
ATOM      6  N   UNL     1       1.129  -0.419   0.283  1.00  0.00    -0.270 N 
ATOM      7  N   UNL     1       4.821   1.245   0.511  1.00  0.00    -0.383 N 
ATOM      8  C   UNL     1       3.572   0.694   0.429  1.00  0.00     0.130 C 
ATOM      9  H   UNL     1       5.238   1.556  -0.358  1.00  0.00     0.158 HD
ATOM     10  H   UNL     1       5.450   0.669   1.063  1.00  0.00     0.158 HD
ATOM     11  C   UNL     1       2.612   1.207  -0.566  1.00  0.00     0.065 C 
ATOM     12  N   UNL     1       3.301  -0.271   1.249  1.00  0.00    -0.176 NA
ATOM     13  C   UNL     1       1.421   0.612  -0.582  1.00  0.00     0.097 C 
ATOM     14  C   UNL     1       2.067  -0.874   1.212  1.00  0.00     0.351 C 
ATOM     15  O   UNL     1       1.785  -1.777   1.997  1.00  0.00    -0.246 OA
ENDBRANCH   1   6
BRANCH   5  16
ATOM     16  O   UNL     1      -0.956   0.610   1.916  1.00  0.00    -0.386 OA
ATOM     17  H   UNL     1      -0.028   0.752   2.182  1.00  0.00     0.211 HD
ENDBRANCH   5  16
BRANCH   3  18
ATOM     18  C   UNL     1      -2.647   0.976  -0.621  1.00  0.00     0.191 C 
BRANCH  18  19
ATOM     19  O   UNL     1      -2.838   1.305  -1.999  1.00  0.00    -0.394 OA
ATOM     20  H   UNL     1      -2.951   2.270  -2.046  1.00  0.00     0.210 HD
ENDBRANCH  18  19
ENDBRANCH   3  18
BRANCH   4  21
ATOM     21  O   UNL     1      -2.685  -2.433   0.974  1.00  0.00    -0.387 OA
ATOM     22  H   UNL     1      -3.547  -2.586   0.548  1.00  0.00     0.211 HD
ENDBRANCH   4  21
TORSDOF 5
