REMARK SMILES C/C=C/C1=C(C(=O)O)N2C(=O)[C@@H](NC(=O)[C@H](N)c3ccc(O)cc3)[C@H]2SC1
REMARK SMILES IDX 13 1 14 2 15 3 12 5 4 6 5 7 27 8 9 9 26 10 10 11 25 12 11 13
REMARK SMILES IDX 3 14 1 15 2 16 6 17 7 18 8 19 16 21 17 22 18 25 19 26 24 27
REMARK SMILES IDX 20 28 23 29 21 30 22 31
REMARK H PARENT 13 4 8 20 17 23 17 24 22 32
REMARK Flexibility Score: inf
ROOT
ATOM      1  N   UNL     1      -1.081  -0.223   0.435  1.00  0.00    -0.340 N 
ATOM      2  C   UNL     1      -1.946  -1.164  -0.090  1.00  0.00     0.242 C 
ATOM      3  O   UNL     1      -1.751  -2.367   0.076  1.00  0.00    -0.273 OA
ATOM      4  H   UNL     1      -1.243   0.752   0.211  1.00  0.00     0.164 HD
ENDROOT
BRANCH   1   5
ATOM      5  C   UNL     1       0.183  -0.636   1.100  1.00  0.00     0.205 C 
ATOM      6  C   UNL     1       3.797   0.371  -0.812  1.00  0.00    -0.007 C 
ATOM      7  C   UNL     1       3.245   0.695   0.386  1.00  0.00     0.135 C 
ATOM      8  C   UNL     1       3.085  -0.552  -1.795  1.00  0.00     0.109 C 
ATOM      9  N   UNL     1       2.103   0.095   0.837  1.00  0.00    -0.289 N 
ATOM     10  S   UNL     1       1.275  -0.597  -1.578  1.00  0.00    -0.129 SA
ATOM     11  C   UNL     1       1.086   0.522   1.618  1.00  0.00     0.253 C 
ATOM     12  C   UNL     1       1.401  -0.989   0.190  1.00  0.00     0.181 C 
ATOM     13  O   UNL     1       0.940   1.488   2.329  1.00  0.00    -0.272 OA
BRANCH   6  14
ATOM     14  C   UNL     1       5.088   0.910  -1.263  1.00  0.00     0.002 C 
ATOM     15  C   UNL     1       7.134   1.076  -2.694  1.00  0.00     0.035 C 
ATOM     16  C   UNL     1       5.821   0.474  -2.302  1.00  0.00    -0.030 C 
ENDBRANCH   6  14
BRANCH   7  17
ATOM     17  C   UNL     1       3.854   1.709   1.298  1.00  0.00     0.352 C 
ATOM     18  O   UNL     1       4.223   2.833   1.008  1.00  0.00    -0.245 OA
BRANCH  17  19
ATOM     19  O   UNL     1       3.982   1.220   2.546  1.00  0.00    -0.477 OA
ATOM     20  H   UNL     1       4.309   1.983   3.065  1.00  0.00     0.297 HD
ENDBRANCH  17  19
ENDBRANCH   7  17
ENDBRANCH   1   5
BRANCH   2  21
ATOM     21  C   UNL     1      -3.170  -0.603  -0.860  1.00  0.00     0.172 C 
BRANCH  21  22
ATOM     22  N   UNL     1      -2.947   0.779  -1.331  1.00  0.00    -0.316 NA
ATOM     23  H   UNL     1      -2.041   0.853  -1.787  1.00  0.00     0.119 HD
ATOM     24  H   UNL     1      -3.013   1.437  -0.561  1.00  0.00     0.119 HD
ENDBRANCH  21  22
BRANCH  21  25
ATOM     25  C   UNL     1      -4.464  -0.683  -0.071  1.00  0.00    -0.022 A 
ATOM     26  C   UNL     1      -5.666  -0.950  -0.748  1.00  0.00     0.010 A 
ATOM     27  C   UNL     1      -4.516  -0.443   1.314  1.00  0.00     0.010 A 
ATOM     28  C   UNL     1      -6.879  -1.004  -0.059  1.00  0.00     0.046 A 
ATOM     29  C   UNL     1      -5.731  -0.499   2.005  1.00  0.00     0.046 A 
ATOM     30  C   UNL     1      -6.902  -0.782   1.311  1.00  0.00     0.115 A 
BRANCH  30  31
ATOM     31  O   UNL     1      -8.107  -0.846   1.946  1.00  0.00    -0.508 OA
ATOM     32  H   UNL     1      -7.965  -0.687   2.894  1.00  0.00     0.293 HD
ENDBRANCH  30  31
ENDBRANCH  21  25
ENDBRANCH   2  21
TORSDOF 8
