REMARK SMILES O=C1Cc2cc(CCN3CCN(c4nsc5ccccc45)CC3)c(Cl)cc2N1
REMARK SMILES IDX 8 1 7 2 6 3 1 4 2 5 3 6 28 7 4 8 27 9 5 11 26 12 24 13 25 14
REMARK SMILES IDX 9 15 10 16 23 17 11 18 22 19 12 20 13 21 14 22 21 23 15 24
REMARK SMILES IDX 16 25 20 26 17 27 19 28 18 29
REMARK H PARENT 28 10
REMARK Flexibility Score: inf
ROOT
ATOM      1  C   UNL     1      -1.113   0.704   0.082  1.00  0.00     0.089 C 
ENDROOT
BRANCH   1   2
ATOM      2  C   UNL     1      -2.348   0.650   0.997  1.00  0.00     0.052 C 
BRANCH   2   3
ATOM      3  C   UNL     1      -3.623   0.424   0.207  1.00  0.00    -0.028 A 
ATOM      4  O   UNL     1      -7.976  -2.613  -2.377  1.00  0.00    -0.274 OA
ATOM      5  C   UNL     1      -7.109  -1.921  -1.871  1.00  0.00     0.228 C 
ATOM      6  C   UNL     1      -5.911  -2.409  -1.047  1.00  0.00     0.138 C 
ATOM      7  N   UNL     1      -7.033  -0.535  -1.940  1.00  0.00    -0.325 N 
ATOM      8  C   UNL     1      -5.220  -1.121  -0.706  1.00  0.00    -0.015 A 
ATOM      9  C   UNL     1      -5.925  -0.057  -1.258  1.00  0.00     0.046 A 
ATOM     10  H   UNL     1      -7.714   0.024  -2.432  1.00  0.00     0.169 HD
ATOM     11  C   UNL     1      -4.068  -0.902   0.026  1.00  0.00     0.011 A 
ATOM     12  C   UNL     1      -5.525   1.251  -1.112  1.00  0.00     0.047 A 
ATOM     13  C   UNL     1      -4.360   1.489  -0.373  1.00  0.00     0.046 A 
ATOM     14  Cl  UNL     1      -3.858   3.135  -0.206  1.00  0.00    -0.084 Cl
ENDBRANCH   2   3
ENDBRANCH   1   2
BRANCH   1  15
ATOM     15  N   UNL     1       0.136   1.012   0.805  1.00  0.00    -0.299 NA
ATOM     16  C   UNL     1       0.561  -0.108   1.682  1.00  0.00     0.106 C 
ATOM     17  C   UNL     1       1.221   1.293  -0.167  1.00  0.00     0.106 C 
ATOM     18  C   UNL     1       1.926   0.145   2.367  1.00  0.00     0.133 C 
ATOM     19  C   UNL     1       2.577   1.588   0.515  1.00  0.00     0.133 C 
ATOM     20  N   UNL     1       2.991   0.473   1.395  1.00  0.00    -0.353 N 
BRANCH  20  21
ATOM     21  C   UNL     1       3.663  -0.574   0.808  1.00  0.00     0.150 A 
ATOM     22  N   UNL     1       3.167  -1.806   0.708  1.00  0.00    -0.174 NA
ATOM     23  C   UNL     1       5.012  -0.403   0.280  1.00  0.00     0.037 A 
ATOM     24  S   UNL     1       4.237  -2.777  -0.081  1.00  0.00    -0.034 S 
ATOM     25  C   UNL     1       5.463  -1.598  -0.283  1.00  0.00     0.057 A 
ATOM     26  C   UNL     1       5.899   0.705   0.260  1.00  0.00     0.013 A 
ATOM     27  C   UNL     1       6.728  -1.722  -0.884  1.00  0.00     0.021 A 
ATOM     28  C   UNL     1       7.162   0.595  -0.332  1.00  0.00     0.001 A 
ATOM     29  C   UNL     1       7.568  -0.605  -0.901  1.00  0.00     0.002 A 
ENDBRANCH  20  21
ENDBRANCH   1  15
TORSDOF 4
