REMARK SMILES Cc1ccc(NC(=O)c2ccc(CN3CCN(C)CC3)cc2)cc1Nc1nccc(-c2cccnc2)n1
REMARK SMILES IDX 1 1 2 2 3 3 4 4 5 5 23 6 24 7 25 8 26 10 27 11 37 12 28 13
REMARK SMILES IDX 30 14 29 15 31 16 32 17 36 18 33 19 35 20 34 21 6 22 7 23
REMARK SMILES IDX 8 25 9 26 10 27 22 28 11 29 21 30 12 31 13 32 14 33 15 34
REMARK SMILES IDX 20 35 16 36 19 37 17 38 18 39
REMARK H PARENT 25 9 6 24
REMARK Flexibility Score: inf
ROOT
ATOM      1  C   UNL     1       4.786   0.801   4.311  1.00  0.00     0.046 C 
ATOM      2  C   UNL     1       3.529   0.486   3.544  1.00  0.00    -0.027 A 
ATOM      3  C   UNL     1       2.321   0.398   4.254  1.00  0.00     0.008 A 
ATOM      4  C   UNL     1       1.124   0.097   3.604  1.00  0.00     0.026 A 
ATOM      5  C   UNL     1       1.114  -0.125   2.233  1.00  0.00     0.043 A 
ATOM      6  C   UNL     1       2.320  -0.029   1.521  1.00  0.00     0.052 A 
ATOM      7  C   UNL     1       3.539   0.283   2.145  1.00  0.00     0.046 A 
ENDROOT
BRANCH   7   8
ATOM      8  N   UNL     1       4.750   0.352   1.439  1.00  0.00    -0.324 N 
ATOM      9  H   UNL     1       5.549   0.716   1.934  1.00  0.00     0.170 HD
BRANCH   8  10
ATOM     10  C   UNL     1       5.130   0.116   0.121  1.00  0.00     0.227 A 
ATOM     11  N   UNL     1       4.279  -0.358  -0.798  1.00  0.00    -0.221 NA
ATOM     12  N   UNL     1       6.418   0.387  -0.146  1.00  0.00    -0.213 NA
ATOM     13  C   UNL     1       4.761  -0.568  -2.033  1.00  0.00     0.117 A 
ATOM     14  C   UNL     1       6.881   0.180  -1.401  1.00  0.00     0.077 A 
ATOM     15  C   UNL     1       6.061  -0.315  -2.394  1.00  0.00     0.049 A 
BRANCH  14  16
ATOM     16  C   UNL     1       8.305   0.504  -1.614  1.00  0.00     0.019 A 
ATOM     17  C   UNL     1       9.237   0.455  -0.564  1.00  0.00     0.013 A 
ATOM     18  C   UNL     1       8.820   0.887  -2.854  1.00  0.00     0.121 A 
ATOM     19  C   UNL     1      10.580   0.761  -0.784  1.00  0.00     0.021 A 
ATOM     20  N   UNL     1      10.120   1.186  -3.106  1.00  0.00    -0.264 NA
ATOM     21  C   UNL     1      10.969   1.116  -2.062  1.00  0.00     0.111 A 
ENDBRANCH  14  16
ENDBRANCH   8  10
ENDBRANCH   7   8
BRANCH   5  22
ATOM     22  N   UNL     1      -0.048  -0.434   1.493  1.00  0.00    -0.322 N 
ATOM     23  C   UNL     1      -1.321  -0.661   1.983  1.00  0.00     0.255 C 
ATOM     24  H   UNL     1       0.095  -0.572   0.501  1.00  0.00     0.170 HD
ATOM     25  O   UNL     1      -1.666  -0.700   3.158  1.00  0.00    -0.269 OA
BRANCH  23  26
ATOM     26  C   UNL     1      -2.351  -0.921   0.939  1.00  0.00     0.040 A 
ATOM     27  C   UNL     1      -3.345  -1.868   1.202  1.00  0.00     0.014 A 
ATOM     28  C   UNL     1      -2.358  -0.224  -0.275  1.00  0.00     0.014 A 
ATOM     29  C   UNL     1      -4.330  -2.135   0.248  1.00  0.00     0.006 A 
ATOM     30  C   UNL     1      -3.347  -0.492  -1.226  1.00  0.00     0.006 A 
ATOM     31  C   UNL     1      -4.345  -1.447  -0.975  1.00  0.00    -0.034 A 
BRANCH  31  32
ATOM     32  C   UNL     1      -5.420  -1.728  -2.005  1.00  0.00     0.120 C 
BRANCH  32  33
ATOM     33  N   UNL     1      -6.651  -0.937  -1.916  1.00  0.00    -0.297 NA
ATOM     34  C   UNL     1      -6.462   0.504  -2.130  1.00  0.00     0.100 C 
ATOM     35  C   UNL     1      -7.445  -1.190  -0.706  1.00  0.00     0.100 C 
ATOM     36  C   UNL     1      -7.808   1.271  -2.133  1.00  0.00     0.099 C 
ATOM     37  C   UNL     1      -8.784  -0.411  -0.718  1.00  0.00     0.099 C 
ATOM     38  N   UNL     1      -8.659   1.043  -0.947  1.00  0.00    -0.304 NA
ATOM     39  C   UNL     1      -8.133   1.728   0.232  1.00  0.00     0.105 C 
ENDBRANCH  32  33
ENDBRANCH  31  32
ENDBRANCH  23  26
ENDBRANCH   5  22
TORSDOF 7
