REMARK SMILES Cc1ccc(NC(=O)c2ccc(CN3CCN(C)CC3)cc2)cc1Nc1nccc(-c2cccnc2)n1
REMARK SMILES IDX 1 1 2 2 3 3 4 4 5 5 23 6 24 7 25 8 26 10 27 11 37 12 28 13
REMARK SMILES IDX 30 14 29 15 31 16 32 17 36 18 33 19 35 20 34 21 6 22 7 23
REMARK SMILES IDX 8 25 9 26 10 27 22 28 11 29 21 30 12 31 13 32 14 33 15 34
REMARK SMILES IDX 20 35 16 36 19 37 17 38 18 39
REMARK H PARENT 25 9 6 24
REMARK Flexibility Score: inf
ROOT
ATOM      1  C   UNL     1       5.231  -3.228  -3.053  1.00  0.00     0.046 C 
ATOM      2  C   UNL     1       3.915  -2.642  -2.615  1.00  0.00    -0.027 A 
ATOM      3  C   UNL     1       2.737  -3.157  -3.183  1.00  0.00     0.008 A 
ATOM      4  C   UNL     1       1.486  -2.655  -2.823  1.00  0.00     0.026 A 
ATOM      5  C   UNL     1       1.389  -1.630  -1.891  1.00  0.00     0.043 A 
ATOM      6  C   UNL     1       2.566  -1.118  -1.320  1.00  0.00     0.052 A 
ATOM      7  C   UNL     1       3.839  -1.605  -1.658  1.00  0.00     0.046 A 
ENDROOT
BRANCH   7   8
ATOM      8  N   UNL     1       5.017  -1.084  -1.101  1.00  0.00    -0.324 N 
ATOM      9  H   UNL     1       5.883  -1.536  -1.351  1.00  0.00     0.170 HD
BRANCH   8  10
ATOM     10  C   UNL     1       5.310  -0.065  -0.199  1.00  0.00     0.227 A 
ATOM     11  N   UNL     1       4.364   0.714   0.340  1.00  0.00    -0.221 NA
ATOM     12  N   UNL     1       6.617   0.075   0.077  1.00  0.00    -0.213 NA
ATOM     13  C   UNL     1       4.766   1.672   1.191  1.00  0.00     0.117 A 
ATOM     14  C   UNL     1       6.999   1.040   0.945  1.00  0.00     0.077 A 
ATOM     15  C   UNL     1       6.078   1.882   1.533  1.00  0.00     0.049 A 
BRANCH  14  16
ATOM     16  C   UNL     1       8.449   1.129   1.196  1.00  0.00     0.019 A 
ATOM     17  C   UNL     1       9.389   0.761   0.220  1.00  0.00     0.013 A 
ATOM     18  C   UNL     1       8.983   1.571   2.408  1.00  0.00     0.121 A 
ATOM     19  C   UNL     1      10.757   0.856   0.473  1.00  0.00     0.021 A 
ATOM     20  N   UNL     1      10.307   1.683   2.687  1.00  0.00    -0.264 NA
ATOM     21  C   UNL     1      11.163   1.321   1.710  1.00  0.00     0.111 A 
ENDBRANCH  14  16
ENDBRANCH   8  10
ENDBRANCH   7   8
BRANCH   5  22
ATOM     22  N   UNL     1       0.167  -1.068  -1.462  1.00  0.00    -0.322 N 
ATOM     23  C   UNL     1      -1.101  -1.350  -1.935  1.00  0.00     0.255 C 
ATOM     24  H   UNL     1       0.249  -0.330  -0.775  1.00  0.00     0.170 HD
ATOM     25  O   UNL     1      -1.391  -2.084  -2.873  1.00  0.00    -0.269 OA
BRANCH  23  26
ATOM     26  C   UNL     1      -2.204  -0.633  -1.233  1.00  0.00     0.040 A 
ATOM     27  C   UNL     1      -2.161  -0.383   0.143  1.00  0.00     0.014 A 
ATOM     28  C   UNL     1      -3.320  -0.231  -1.976  1.00  0.00     0.014 A 
ATOM     29  C   UNL     1      -3.217   0.291   0.762  1.00  0.00     0.006 A 
ATOM     30  C   UNL     1      -4.375   0.441  -1.355  1.00  0.00     0.006 A 
ATOM     31  C   UNL     1      -4.334   0.708   0.021  1.00  0.00    -0.034 A 
BRANCH  31  32
ATOM     32  C   UNL     1      -5.472   1.449   0.697  1.00  0.00     0.120 C 
BRANCH  32  33
ATOM     33  N   UNL     1      -6.032   0.722   1.848  1.00  0.00    -0.297 NA
ATOM     34  C   UNL     1      -6.775  -0.494   1.447  1.00  0.00     0.100 C 
ATOM     35  C   UNL     1      -6.943   1.584   2.632  1.00  0.00     0.100 C 
ATOM     36  C   UNL     1      -8.143  -0.233   0.772  1.00  0.00     0.099 C 
ATOM     37  C   UNL     1      -8.308   1.869   1.961  1.00  0.00     0.099 C 
ATOM     38  N   UNL     1      -9.013   0.632   1.587  1.00  0.00    -0.304 NA
ATOM     39  C   UNL     1     -10.263   0.926   0.892  1.00  0.00     0.105 C 
ENDBRANCH  32  33
ENDBRANCH  31  32
ENDBRANCH  23  26
ENDBRANCH   5  22
TORSDOF 7
