REMARK SMILES Cc1cccc(-c2[nH]c(CNc3ccccc3F)nc2-c2ccc3ncnn3c2)n1
REMARK SMILES IDX 10 1 9 2 7 3 20 4 8 5 19 6 6 8 1 9 2 10 30 11 3 12 4 13 5 14
REMARK SMILES IDX 21 15 29 16 22 17 28 18 23 19 27 20 24 21 26 22 25 23 11 24
REMARK SMILES IDX 12 26 17 27 13 28 18 29 16 30 14 31 15 32
REMARK H PARENT 8 7 11 25
REMARK Flexibility Score: inf
ROOT
ATOM      1  C   UNL     1       2.626   0.385  -0.861  1.00  0.00     0.188 C 
ENDROOT
BRANCH   1   2
ATOM      2  C   UNL     1       1.179   0.540  -0.510  1.00  0.00     0.126 A 
ATOM      3  C   UNL     1      -0.924  -0.108  -0.107  1.00  0.00     0.092 A 
ATOM      4  C   UNL     1      -0.772   1.263   0.011  1.00  0.00     0.100 A 
ATOM      5  N   UNL     1       0.329  -0.534  -0.490  1.00  0.00    -0.339 N 
ATOM      6  N   UNL     1       0.534   1.646  -0.197  1.00  0.00    -0.231 NA
ATOM      7  H   UNL     1       0.579  -1.496  -0.683  1.00  0.00     0.168 HD
BRANCH   3   8
ATOM      8  C   UNL     1      -2.008  -1.059   0.075  1.00  0.00     0.089 A 
ATOM      9  C   UNL     1      -2.667  -4.372  -1.392  1.00  0.00     0.067 C 
ATOM     10  C   UNL     1      -2.825  -3.138  -0.556  1.00  0.00     0.038 A 
ATOM     11  N   UNL     1      -1.866  -2.187  -0.664  1.00  0.00    -0.251 NA
ATOM     12  C   UNL     1      -3.921  -3.003   0.289  1.00  0.00     0.023 A 
ATOM     13  C   UNL     1      -4.036  -1.849   1.057  1.00  0.00     0.004 A 
ATOM     14  C   UNL     1      -3.062  -0.861   0.955  1.00  0.00     0.031 A 
ENDBRANCH   3   8
BRANCH   4  15
ATOM     15  C   UNL     1      -1.751   2.270   0.292  1.00  0.00     0.021 C 
ATOM     16  C   UNL     1      -2.966   2.302  -0.294  1.00  0.00     0.125 C 
ATOM     17  C   UNL     1      -1.429   3.363   1.221  1.00  0.00     0.016 C 
ATOM     18  N   UNL     1      -3.872   3.314   0.010  1.00  0.00    -0.220 N 
ATOM     19  C   UNL     1      -2.302   4.344   1.517  1.00  0.00     0.050 C 
ATOM     20  N   UNL     1      -5.132   3.485  -0.461  1.00  0.00    -0.155 NA
ATOM     21  C   UNL     1      -3.585   4.342   0.911  1.00  0.00     0.155 A 
ATOM     22  C   UNL     1      -5.524   4.593   0.170  1.00  0.00     0.247 A 
ATOM     23  N   UNL     1      -4.616   5.148   1.021  1.00  0.00    -0.215 NA
ENDBRANCH   4  15
ENDBRANCH   1   2
BRANCH   1  24
ATOM     24  N   UNL     1       3.269  -0.726  -0.156  1.00  0.00    -0.375 N 
ATOM     25  H   UNL     1       3.089  -0.670   0.850  1.00  0.00     0.161 HD
BRANCH  24  26
ATOM     26  C   UNL     1       4.651  -0.918  -0.355  1.00  0.00     0.071 A 
ATOM     27  C   UNL     1       5.427  -1.449   0.692  1.00  0.00     0.146 A 
ATOM     28  C   UNL     1       5.282  -0.734  -1.590  1.00  0.00     0.029 A 
ATOM     29  F   UNL     1       4.850  -1.677   1.884  1.00  0.00    -0.205 F 
ATOM     30  C   UNL     1       6.783  -1.729   0.544  1.00  0.00     0.041 A 
ATOM     31  C   UNL     1       6.647  -1.011  -1.750  1.00  0.00     0.002 A 
ATOM     32  C   UNL     1       7.398  -1.503  -0.683  1.00  0.00     0.003 A 
ENDBRANCH  24  26
ENDBRANCH   1  24
TORSDOF 5
