REMARK SMILES CN(C)CCCn1c2c(c3ccccc31)CCCCCC2
REMARK SMILES IDX 7 1 8 2 9 3 10 4 11 5 12 6 13 7 14 8 15 9 6 10 5 11 4 12
REMARK SMILES IDX 2 13 1 14 3 15 21 16 20 17 19 18 16 20 17 21 18 22
REMARK H PARENT
REMARK Flexibility Score: 80.00
ROOT
ATOM      1  N   UNL     1       0.197   0.099  -0.811  1.00  0.00    -0.344 N 
ATOM      2  C   UNL     1      -1.032   0.579  -0.374  1.00  0.00     0.022 A 
ATOM      3  C   UNL     1      -1.878  -0.516  -0.239  1.00  0.00    -0.019 A 
ATOM      4  C   UNL     1      -1.145  -1.678  -0.654  1.00  0.00     0.003 A 
ATOM      5  C   UNL     1      -1.471  -3.049  -0.762  1.00  0.00     0.010 A 
ATOM      6  C   UNL     1      -0.513  -3.965  -1.207  1.00  0.00     0.001 A 
ATOM      7  C   UNL     1       0.764  -3.535  -1.545  1.00  0.00     0.002 A 
ATOM      8  C   UNL     1       1.111  -2.185  -1.450  1.00  0.00     0.027 A 
ATOM      9  C   UNL     1       0.140  -1.269  -1.004  1.00  0.00     0.048 A 
ENDROOT
BRANCH   1  10
ATOM     10  C   UNL     1       1.388   0.905  -1.063  1.00  0.00     0.124 C 
BRANCH  10  11
ATOM     11  C   UNL     1       2.117   1.347   0.208  1.00  0.00     0.037 C 
BRANCH  11  12
ATOM     12  C   UNL     1       2.836   0.208   0.944  1.00  0.00     0.085 C 
BRANCH  12  13
ATOM     13  N   UNL     1       3.883  -0.451   0.143  1.00  0.00    -0.309 NA
ATOM     14  C   UNL     1       4.292  -1.701   0.794  1.00  0.00     0.104 C 
ATOM     15  C   UNL     1       5.055   0.408  -0.047  1.00  0.00     0.104 C 
ENDBRANCH  12  13
ENDBRANCH  11  12
ENDBRANCH  10  11
ENDBRANCH   1  10
BRANCH   2  16
ATOM     16  C   UNL     1      -1.272   2.034  -0.075  1.00  0.00     0.054 C 
BRANCH  16  17
ATOM     17  C   UNL     1      -2.647   2.564  -0.494  1.00  0.00     0.006 C 
BRANCH  17  18
ATOM     18  C   UNL     1      -3.596   2.780   0.685  1.00  0.00     0.000 CG0
ATOM     19  G   UNL     1      -4.420   1.570   1.116  1.00  0.00     0.000 G0
ENDBRANCH  17  18
ENDBRANCH  16  17
ENDBRANCH   2  16
BRANCH   3  20
ATOM     20  C   UNL     1      -3.310  -0.541   0.209  1.00  0.00     0.038 C 
BRANCH  20  21
ATOM     21  C   UNL     1      -3.630   0.304   1.445  1.00  0.00     0.005 C 
BRANCH  21  22
ATOM     22  C   UNL     1      -4.420   1.570   1.116  1.00  0.00     0.000 CG0
ATOM     23  G   UNL     1      -3.596   2.780   0.685  1.00  0.00     0.000 G0
ENDBRANCH  21  22
ENDBRANCH  20  21
ENDBRANCH   3  20
TORSDOF 4
