REMARK SMILES CN(C)CC[C@@H](c1ccc(Br)cc1)c1ccccn1
REMARK SMILES IDX 5 1 4 2 2 3 1 4 3 5 6 6 7 7 8 8 13 9 9 10 12 11 10 12 11 13
REMARK SMILES IDX 14 14 15 15 19 16 16 17 18 18 17 19
REMARK H PARENT
REMARK Flexibility Score: inf
ROOT
ATOM      1  C   UNL     1       0.936  -0.175  -1.190  1.00  0.00     0.030 C 
ENDROOT
BRANCH   1   2
ATOM      2  C   UNL     1       1.906   0.971  -0.857  1.00  0.00     0.085 C 
BRANCH   2   3
ATOM      3  N   UNL     1       2.654   0.791   0.401  1.00  0.00    -0.309 NA
ATOM      4  C   UNL     1       3.621  -0.306   0.308  1.00  0.00     0.104 C 
ATOM      5  C   UNL     1       3.351   2.034   0.746  1.00  0.00     0.104 C 
ENDBRANCH   2   3
ENDBRANCH   1   2
BRANCH   1   6
ATOM      6  C   UNL     1      -0.104  -0.468  -0.082  1.00  0.00     0.069 C 
BRANCH   6   7
ATOM      7  C   UNL     1      -1.036   0.718   0.156  1.00  0.00    -0.039 A 
ATOM      8  C   UNL     1      -2.010   1.083  -0.787  1.00  0.00     0.005 A 
ATOM      9  C   UNL     1      -0.913   1.479   1.330  1.00  0.00     0.005 A 
ATOM     10  C   UNL     1      -2.848   2.177  -0.558  1.00  0.00     0.016 A 
ATOM     11  C   UNL     1      -1.749   2.574   1.559  1.00  0.00     0.016 A 
ATOM     12  C   UNL     1      -2.714   2.916   0.615  1.00  0.00     0.017 A 
ATOM     13  Br  UNL     1      -3.846   4.398   0.925  1.00  0.00    -0.051 Br
ENDBRANCH   6   7
BRANCH   6  14
ATOM     14  C   UNL     1      -0.881  -1.758  -0.357  1.00  0.00     0.048 A 
ATOM     15  C   UNL     1      -1.436  -2.466   0.711  1.00  0.00     0.024 A 
ATOM     16  N   UNL     1      -1.046  -2.155  -1.646  1.00  0.00    -0.261 NA
ATOM     17  C   UNL     1      -2.166  -3.623   0.451  1.00  0.00     0.003 A 
ATOM     18  C   UNL     1      -1.759  -3.282  -1.867  1.00  0.00     0.111 A 
ATOM     19  C   UNL     1      -2.331  -4.042  -0.863  1.00  0.00     0.020 A 
ENDBRANCH   6  14
ENDBRANCH   1   6
TORSDOF 5
