REMARK SMILES O=C(Cn1ccnc1[N+](=O)[O-])NCc1ccccc1
REMARK SMILES IDX 1 1 2 2 12 3 3 5 4 6 5 7 8 8 6 9 7 10 9 11 10 12 11 13 13 14
REMARK SMILES IDX 14 15 15 16 19 17 16 18 18 19 17 20
REMARK H PARENT 12 4
REMARK Flexibility Score: inf
ROOT
ATOM      1  O   UNL     1      -1.074  -2.376  -0.588  1.00  0.00    -0.271 OA
ATOM      2  C   UNL     1      -0.822  -1.470   0.201  1.00  0.00     0.255 C 
ATOM      3  N   UNL     1       0.285  -0.661   0.088  1.00  0.00    -0.349 N 
ATOM      4  H   UNL     1       0.266   0.244   0.554  1.00  0.00     0.163 HD
ENDROOT
BRANCH   2   5
ATOM      5  C   UNL     1      -1.717  -1.160   1.383  1.00  0.00     0.306 C 
BRANCH   5   6
ATOM      6  N   UNL     1      -3.038  -0.727   0.963  1.00  0.00    -0.220 N 
ATOM      7  C   UNL     1      -4.172  -1.500   1.070  1.00  0.00     0.205 A 
ATOM      8  C   UNL     1      -3.430   0.468   0.412  1.00  0.00     0.435 A 
ATOM      9  C   UNL     1      -5.192  -0.730   0.562  1.00  0.00     0.245 A 
ATOM     10  N   UNL     1      -4.726   0.494   0.161  1.00  0.00    -0.074 NA
BRANCH   8  11
ATOM     11  N   UNL     1      -2.561   1.583   0.135  1.00  0.00    -0.047 N 
ATOM     12  O   UNL     1      -2.988   2.474  -0.608  1.00  0.00    -0.390 OA
ATOM     13  O   UNL     1      -1.436   1.571   0.658  1.00  0.00    -0.390 OA
ENDBRANCH   8  11
ENDBRANCH   5   6
ENDBRANCH   2   5
BRANCH   3  14
ATOM     14  C   UNL     1       1.153  -0.765  -1.063  1.00  0.00     0.151 C 
BRANCH  14  15
ATOM     15  C   UNL     1       2.391   0.065  -0.867  1.00  0.00    -0.029 A 
ATOM     16  C   UNL     1       2.422   1.407  -1.274  1.00  0.00     0.005 A 
ATOM     17  C   UNL     1       3.515  -0.477  -0.227  1.00  0.00     0.005 A 
ATOM     18  C   UNL     1       3.563   2.184  -1.063  1.00  0.00     0.000 A 
ATOM     19  C   UNL     1       4.655   0.301  -0.017  1.00  0.00     0.000 A 
ATOM     20  C   UNL     1       4.679   1.630  -0.437  1.00  0.00     0.000 A 
ENDBRANCH  14  15
ENDBRANCH   3  14
TORSDOF 5
