REMARK SMILES COc1cc2c(cc1OC)C(CCc1ccc(Cl)cc1)N(C)CC2
REMARK SMILES IDX 12 1 11 2 3 3 4 4 8 5 5 6 7 7 6 8 24 9 23 10 21 11 22 12
REMARK SMILES IDX 2 13 1 14 9 15 10 16 13 17 14 18 15 19 20 20 16 21 19 22
REMARK SMILES IDX 17 23 18 24
REMARK H PARENT
REMARK Flexibility Score: inf
ROOT
ATOM      1  C   UNL     1      -1.406  -0.439  -0.801  1.00  0.00     0.029 C 
ENDROOT
BRANCH   1   2
ATOM      2  C   UNL     1      -0.140  -1.333  -0.728  1.00  0.00     0.087 C 
ATOM      3  C   UNL     1       3.442   0.344   1.120  1.00  0.00     0.161 A 
ATOM      4  C   UNL     1       3.407  -0.962   0.627  1.00  0.00     0.054 A 
ATOM      5  C   UNL     1       2.307   1.166   0.981  1.00  0.00     0.161 A 
ATOM      6  C   UNL     1       2.249  -1.453   0.010  1.00  0.00    -0.038 A 
ATOM      7  C   UNL     1       1.145   0.658   0.380  1.00  0.00     0.056 A 
ATOM      8  C   UNL     1       1.085  -0.664  -0.081  1.00  0.00    -0.024 A 
ATOM      9  C   UNL     1       2.198  -2.841  -0.569  1.00  0.00     0.051 C 
ATOM     10  C   UNL     1       1.365  -2.897  -1.869  1.00  0.00     0.089 C 
ATOM     11  N   UNL     1       0.313  -1.868  -2.033  1.00  0.00    -0.299 NA
ATOM     12  C   UNL     1      -0.730  -2.355  -2.928  1.00  0.00     0.106 C 
BRANCH   3  13
ATOM     13  O   UNL     1       4.530   0.914   1.735  1.00  0.00    -0.493 OA
ATOM     14  C   UNL     1       5.693   0.115   1.889  1.00  0.00     0.278 C 
ENDBRANCH   3  13
BRANCH   5  15
ATOM     15  O   UNL     1       2.429   2.444   1.472  1.00  0.00    -0.493 OA
ATOM     16  C   UNL     1       1.370   3.354   1.218  1.00  0.00     0.278 C 
ENDBRANCH   5  15
ENDBRANCH   1   2
BRANCH   1  17
ATOM     17  C   UNL     1      -2.073  -0.249   0.573  1.00  0.00     0.037 C 
BRANCH  17  18
ATOM     18  C   UNL     1      -3.263   0.677   0.488  1.00  0.00    -0.048 A 
ATOM     19  C   UNL     1      -4.529   0.177   0.151  1.00  0.00     0.005 A 
ATOM     20  C   UNL     1      -3.111   2.051   0.720  1.00  0.00     0.005 A 
ATOM     21  C   UNL     1      -5.626   1.036   0.056  1.00  0.00     0.021 A 
ATOM     22  C   UNL     1      -4.208   2.910   0.624  1.00  0.00     0.021 A 
ATOM     23  C   UNL     1      -5.461   2.399   0.293  1.00  0.00     0.041 A 
ATOM     24  Cl  UNL     1      -6.812   3.457   0.175  1.00  0.00    -0.084 Cl
ENDBRANCH  17  18
ENDBRANCH   1  17
TORSDOF 5
