REMARK SMILES Cc1oncc1C(=O)Nc1ccc(C(F)(F)F)cc1
REMARK SMILES IDX 10 1 11 2 12 3 13 4 18 5 19 6 9 7 7 8 8 9 6 11 1 12 2 13
REMARK SMILES IDX 3 14 4 15 5 16 14 17 15 18 16 19 17 20
REMARK H PARENT 9 10
REMARK Flexibility Score: inf
ROOT
ATOM      1  C   UNL     1      -0.686   0.028  -0.227  1.00  0.00     0.041 A 
ATOM      2  C   UNL     1      -1.397   0.466   0.897  1.00  0.00     0.027 A 
ATOM      3  C   UNL     1      -2.711   0.930   0.778  1.00  0.00     0.015 A 
ATOM      4  C   UNL     1      -3.340   0.974  -0.473  1.00  0.00     0.056 A 
ATOM      5  C   UNL     1      -2.628   0.531  -1.595  1.00  0.00     0.015 A 
ATOM      6  C   UNL     1      -1.312   0.067  -1.474  1.00  0.00     0.027 A 
ENDROOT
BRANCH   1   7
ATOM      7  N   UNL     1       0.636  -0.417  -0.019  1.00  0.00    -0.322 N 
ATOM      8  C   UNL     1       1.494  -0.976  -0.948  1.00  0.00     0.260 C 
ATOM      9  O   UNL     1       1.205  -1.261  -2.104  1.00  0.00    -0.269 OA
ATOM     10  H   UNL     1       0.958  -0.390   0.938  1.00  0.00     0.170 HD
BRANCH   8  11
ATOM     11  C   UNL     1       2.821  -1.278  -0.441  1.00  0.00     0.102 A 
ATOM     12  C   UNL     1       3.334   0.405   1.537  1.00  0.00     0.091 C 
ATOM     13  C   UNL     1       3.546  -0.704   0.586  1.00  0.00     0.146 A 
ATOM     14  O   UNL     1       4.755  -1.325   0.686  1.00  0.00    -0.361 OA
ATOM     15  N   UNL     1       4.862  -2.296  -0.290  1.00  0.00    -0.087 NA
ATOM     16  C   UNL     1       3.714  -2.241  -0.966  1.00  0.00     0.172 A 
ENDBRANCH   8  11
ENDBRANCH   1   7
BRANCH   4  17
ATOM     17  C   UNL     1      -4.766   1.451  -0.602  1.00  0.00     0.416 C 
ATOM     18  F   UNL     1      -5.089   2.409   0.312  1.00  0.00    -0.166 F 
ATOM     19  F   UNL     1      -5.666   0.446  -0.423  1.00  0.00    -0.166 F 
ATOM     20  F   UNL     1      -5.043   1.993  -1.820  1.00  0.00    -0.166 F 
ENDBRANCH   4  17
TORSDOF 3
