REMARK SMILES C[C@@H]1CCN(C(=O)CC#N)C[C@@H]1N(C)c1ncnc2[nH]ccc12
REMARK SMILES IDX 1 1 2 2 3 3 4 4 5 5 11 6 12 7 13 8 14 9 15 10 16 11 23 12
REMARK SMILES IDX 17 13 19 14 22 15 18 16 20 17 21 18 6 20 7 21 8 22 9 23
REMARK SMILES IDX 10 24
REMARK H PARENT 20 19
REMARK Flexibility Score: inf
ROOT
ATOM      1  C   UNL     1      -0.638  -2.444  -1.144  1.00  0.00     0.010 C 
ATOM      2  C   UNL     1       0.657  -1.769  -0.696  1.00  0.00     0.012 C 
ATOM      3  C   UNL     1       1.070  -2.215   0.711  1.00  0.00     0.027 C 
ATOM      4  C   UNL     1       2.478  -1.726   1.049  1.00  0.00     0.120 C 
ATOM      5  N   UNL     1       2.762  -0.359   0.611  1.00  0.00    -0.340 N 
ATOM      6  C   UNL     1       1.595   0.458   0.252  1.00  0.00     0.144 C 
ATOM      7  C   UNL     1       0.720  -0.218  -0.839  1.00  0.00     0.105 C 
ENDROOT
BRANCH   7   8
ATOM      8  N   UNL     1      -0.582   0.453  -1.091  1.00  0.00    -0.354 N 
ATOM      9  C   UNL     1      -0.486   1.787  -1.693  1.00  0.00     0.145 C 
BRANCH   8  10
ATOM     10  C   UNL     1      -1.570   0.422  -0.096  1.00  0.00     0.141 A 
ATOM     11  N   UNL     1      -1.237   0.214   1.202  1.00  0.00    -0.219 NA
ATOM     12  C   UNL     1      -2.948   0.557  -0.387  1.00  0.00     0.061 A 
ATOM     13  C   UNL     1      -2.203   0.195   2.143  1.00  0.00     0.226 A 
ATOM     14  C   UNL     1      -3.830   0.511   0.683  1.00  0.00     0.142 A 
ATOM     15  C   UNL     1      -3.752   0.706  -1.557  1.00  0.00     0.033 A 
ATOM     16  N   UNL     1      -3.525   0.344   1.976  1.00  0.00    -0.218 NA
ATOM     17  N   UNL     1      -5.102   0.660   0.203  1.00  0.00    -0.346 N 
ATOM     18  C   UNL     1      -5.072   0.776  -1.163  1.00  0.00     0.085 A 
ATOM     19  H   UNL     1      -5.925   0.660   0.788  1.00  0.00     0.167 HD
ENDBRANCH   8  10
ENDBRANCH   7   8
BRANCH   5  20
ATOM     20  C   UNL     1       4.036   0.130   0.879  1.00  0.00     0.236 C 
ATOM     21  O   UNL     1       4.914  -0.591   1.365  1.00  0.00    -0.274 OA
BRANCH  20  22
ATOM     22  C   UNL     1       4.366   1.562   0.529  1.00  0.00     0.220 C 
BRANCH  22  23
ATOM     23  C   UNL     1       3.897   2.471   1.572  1.00  0.00     0.072 C 
ATOM     24  N   UNL     1       3.506   3.220   2.369  1.00  0.00    -0.198 NA
ENDBRANCH  22  23
ENDBRANCH  20  22
ENDBRANCH   5  20
TORSDOF 5
