REMARK SMILES CN1[C@@H]2CC[C@H]1C[C@@H](OC(=O)C(O)c1ccccc1)C2
REMARK SMILES IDX 10 1 11 2 9 3 8 4 1 5 2 6 3 7 6 8 4 9 20 10 5 11 7 12 12 13
REMARK SMILES IDX 13 14 14 16 15 17 19 18 16 19 18 20 17 21
REMARK H PARENT 13 15
REMARK Flexibility Score: inf
ROOT
ATOM      1  C   UNL     1       1.301  -0.176   0.733  1.00  0.00     0.339 C 
ATOM      2  O   UNL     1       1.276  -1.388   0.885  1.00  0.00    -0.249 OA
ENDROOT
BRANCH   1   3
ATOM      3  O   UNL     1       0.305   0.561   0.144  1.00  0.00    -0.460 OA
BRANCH   3   4
ATOM      4  C   UNL     1      -0.818  -0.175  -0.383  1.00  0.00     0.179 C 
ATOM      5  C   UNL     1      -4.476  -1.496  -1.717  1.00  0.00     0.105 C 
ATOM      6  N   UNL     1      -3.222  -0.940  -1.212  1.00  0.00    -0.300 NA
ATOM      7  C   UNL     1      -3.284  -0.595   0.220  1.00  0.00     0.060 C 
ATOM      8  C   UNL     1      -2.879   0.353  -1.830  1.00  0.00     0.060 C 
ATOM      9  C   UNL     1      -4.021   0.749   0.264  1.00  0.00     0.021 C 
ATOM     10  C   UNL     1      -1.839  -0.446   0.735  1.00  0.00     0.064 C 
ATOM     11  C   UNL     1      -3.754   1.377  -1.098  1.00  0.00     0.021 C 
ATOM     12  C   UNL     1      -1.386   0.623  -1.568  1.00  0.00     0.064 C 
ENDBRANCH   3   4
ENDBRANCH   1   3
BRANCH   1  13
ATOM     13  C   UNL     1       2.402   0.780   1.243  1.00  0.00     0.254 C 
BRANCH  13  14
ATOM     14  O   UNL     1       2.327   2.092   0.676  1.00  0.00    -0.377 OA
ATOM     15  H   UNL     1       1.375   2.273   0.569  1.00  0.00     0.212 HD
ENDBRANCH  13  14
BRANCH  13  16
ATOM     16  C   UNL     1       3.796   0.228   1.024  1.00  0.00    -0.008 A 
ATOM     17  C   UNL     1       4.404  -0.563   2.012  1.00  0.00     0.007 A 
ATOM     18  C   UNL     1       4.498   0.473  -0.167  1.00  0.00     0.007 A 
ATOM     19  C   UNL     1       5.686  -1.079   1.821  1.00  0.00     0.000 A 
ATOM     20  C   UNL     1       5.781  -0.043  -0.356  1.00  0.00     0.000 A 
ATOM     21  C   UNL     1       6.374  -0.817   0.639  1.00  0.00     0.000 A 
ENDBRANCH  13  16
ENDBRANCH   1  13
TORSDOF 5
