REMARK SMILES CN1C(=O)CN=C(C2=CCCCC2)c2cc(Cl)ccc21
REMARK SMILES IDX 14 1 15 2 16 3 17 4 18 5 19 6 20 7 2 8 1 9 3 10 4 11 7 13
REMARK SMILES IDX 6 14 8 15 9 16 13 17 10 18 12 19 11 20 5 21
REMARK H PARENT
REMARK Flexibility Score: 90.00
ROOT
ATOM      1  C   UNL     1      -0.821   0.247   0.777  1.00  0.00     0.025 A 
ATOM      2  C   UNL     1      -0.232   1.128   1.705  1.00  0.00     0.033 A 
ATOM      3  C   UNL     1      -0.899   2.284   2.091  1.00  0.00     0.041 A 
ATOM      4  Cl  UNL     1      -0.167   3.362   3.212  1.00  0.00    -0.084 Cl
ATOM      5  C   UNL     1      -2.149   2.576   1.564  1.00  0.00     0.023 A 
ATOM      6  C   UNL     1      -2.747   1.692   0.661  1.00  0.00     0.028 A 
ATOM      7  C   UNL     1      -2.111   0.497   0.267  1.00  0.00     0.053 A 
ENDROOT
BRANCH   7   8
ATOM      8  N   UNL     1      -2.793  -0.392  -0.623  1.00  0.00    -0.313 N 
ATOM      9  C   UNL     1      -3.777   0.150  -1.552  1.00  0.00     0.153 C 
BRANCH   8  10
ATOM     10  C   UNL     1      -2.696  -1.788  -0.561  1.00  0.00     0.248 CG0
ATOM     11  O   UNL     1      -3.344  -2.527  -1.308  1.00  0.00    -0.272 OA
ATOM     12  G   UNL     1      -1.818  -2.377   0.534  1.00  0.00     0.000 G0
ENDBRANCH   8  10
ENDBRANCH   7   8
BRANCH   1  13
ATOM     13  C   UNL     1       0.004  -0.906   0.322  1.00  0.00     0.070 C 
ATOM     14  N   UNL     1      -0.417  -2.122   0.219  1.00  0.00    -0.274 NA
BRANCH  13  15
ATOM     15  C   UNL     1       1.425  -0.602  -0.051  1.00  0.00    -0.026 C 
ATOM     16  C   UNL     1       2.386  -1.373   0.487  1.00  0.00    -0.021 C 
ATOM     17  C   UNL     1       1.713   0.510  -1.023  1.00  0.00     0.037 C 
ATOM     18  C   UNL     1       3.842  -1.214   0.163  1.00  0.00     0.028 C 
ATOM     19  C   UNL     1       3.192   0.907  -1.043  1.00  0.00     0.005 C 
ATOM     20  C   UNL     1       4.095  -0.323  -1.055  1.00  0.00     0.004 C 
ENDBRANCH  13  15
BRANCH  14  21
ATOM     21  C   UNL     1      -1.818  -2.377   0.534  1.00  0.00     0.243 CG0
ATOM     22  G   UNL     1      -2.696  -1.788  -0.561  1.00  0.00     0.000 G0
ENDBRANCH  14  21
ENDBRANCH   1  13
TORSDOF 1
