REMARK SMILES CC(C)[C@H](N)C(=O)OCC(CO)OCn1cnc2c(=O)[nH]c(N)nc21
REMARK SMILES IDX 9 1 8 2 6 3 7 4 4 5 2 6 1 7 3 8 5 9 10 12 11 13 12 14 13 16
REMARK SMILES IDX 14 17 15 18 16 19 25 20 17 21 18 22 24 23 19 24 22 25 20 26
REMARK SMILES IDX 21 27 23 28
REMARK H PARENT 5 10 5 11 12 15 21 29 23 30 23 31
REMARK Flexibility Score: inf
ROOT
ATOM      1  C   UNL     1      -0.061  -0.101   0.600  1.00  0.00     0.267 C 
ENDROOT
BRANCH   1   2
ATOM      2  O   UNL     1      -1.377   0.113   0.075  1.00  0.00    -0.462 OA
BRANCH   2   3
ATOM      3  C   UNL     1      -2.361  -0.694   0.576  1.00  0.00     0.323 C 
ATOM      4  O   UNL     1      -2.180  -1.647   1.323  1.00  0.00    -0.250 OA
BRANCH   3   5
ATOM      5  C   UNL     1      -3.746  -0.240   0.075  1.00  0.00     0.164 C 
BRANCH   5   6
ATOM      6  C   UNL     1      -4.011  -0.741  -1.363  1.00  0.00     0.011 C 
ATOM      7  C   UNL     1      -5.366  -0.260  -1.895  1.00  0.00     0.009 C 
ATOM      8  C   UNL     1      -3.966  -2.273  -1.439  1.00  0.00     0.009 C 
ENDBRANCH   5   6
BRANCH   5   9
ATOM      9  N   UNL     1      -3.843   1.241   0.160  1.00  0.00    -0.318 NA
ATOM     10  H   UNL     1      -3.120   1.630  -0.448  1.00  0.00     0.119 HD
ATOM     11  H   UNL     1      -3.541   1.510   1.106  1.00  0.00     0.119 HD
ENDBRANCH   5   9
ENDBRANCH   3   5
ENDBRANCH   2   3
ENDBRANCH   1   2
BRANCH   1  12
ATOM     12  C   UNL     1       0.346   1.046   1.544  1.00  0.00     0.183 C 
BRANCH  12  13
ATOM     13  C   UNL     1      -0.592   1.150   2.760  1.00  0.00     0.191 C 
BRANCH  13  14
ATOM     14  O   UNL     1      -1.819   1.797   2.427  1.00  0.00    -0.394 OA
ATOM     15  H   UNL     1      -1.671   2.756   2.515  1.00  0.00     0.210 HD
ENDBRANCH  13  14
ENDBRANCH  12  13
BRANCH  12  16
ATOM     16  O   UNL     1       1.671   0.797   2.031  1.00  0.00    -0.351 OA
BRANCH  16  17
ATOM     17  C   UNL     1       2.667   1.703   1.551  1.00  0.00     0.288 C 
BRANCH  17  18
ATOM     18  N   UNL     1       2.991   1.431   0.168  1.00  0.00    -0.291 N 
ATOM     19  C   UNL     1       2.640   2.209  -0.907  1.00  0.00     0.204 A 
ATOM     20  C   UNL     1       3.741   0.396  -0.310  1.00  0.00     0.171 A 
ATOM     21  N   UNL     1       3.089   1.714  -2.043  1.00  0.00    -0.229 NA
ATOM     22  C   UNL     1       3.777   0.586  -1.673  1.00  0.00     0.173 A 
ATOM     23  N   UNL     1       4.312  -0.594   0.414  1.00  0.00    -0.195 NA
ATOM     24  C   UNL     1       4.505  -0.380  -2.469  1.00  0.00     0.280 C 
ATOM     25  C   UNL     1       4.954  -1.465  -0.317  1.00  0.00     0.202 C 
ATOM     26  O   UNL     1       4.651  -0.343  -3.687  1.00  0.00    -0.267 OA
ATOM     27  N   UNL     1       5.050  -1.393  -1.693  1.00  0.00    -0.291 N 
ATOM     28  N   UNL     1       5.568  -2.521   0.272  1.00  0.00    -0.369 N 
ATOM     29  H   UNL     1       5.605  -2.065  -2.195  1.00  0.00     0.173 HD
ATOM     30  H   UNL     1       5.529  -3.399  -0.230  1.00  0.00     0.159 HD
ATOM     31  H   UNL     1       5.283  -2.624   1.242  1.00  0.00     0.159 HD
ENDBRANCH  17  18
ENDBRANCH  16  17
ENDBRANCH  12  16
ENDBRANCH   1  12
TORSDOF 11
