REMARK SMILES CN1CCC(N(Cc2cccs2)c2ccccc2)CC1
REMARK SMILES IDX 7 1 6 2 5 3 1 4 2 5 3 6 20 7 4 8 19 9 13 10 14 11 18 12
REMARK SMILES IDX 15 13 17 14 16 15 8 16 9 17 12 18 10 19 11 20
REMARK H PARENT
REMARK Flexibility Score: inf
ROOT
ATOM      1  C   UNL     1      -1.242  -0.260   1.814  1.00  0.00     0.163 C 
ENDROOT
BRANCH   1   2
ATOM      2  N   UNL     1      -0.441  -0.847   0.708  1.00  0.00    -0.363 N 
BRANCH   2   3
ATOM      3  C   UNL     1       0.703  -0.054   0.169  1.00  0.00     0.085 C 
ATOM      4  C   UNL     1       4.569   1.286  -0.940  1.00  0.00     0.105 C 
ATOM      5  N   UNL     1       3.200   0.871  -0.646  1.00  0.00    -0.306 NA
ATOM      6  C   UNL     1       2.833   1.205   0.735  1.00  0.00     0.086 C 
ATOM      7  C   UNL     1       2.996  -0.550  -0.915  1.00  0.00     0.086 C 
ATOM      8  C   UNL     1       1.673   0.365   1.285  1.00  0.00     0.040 C 
ATOM      9  C   UNL     1       1.502  -0.881  -0.873  1.00  0.00     0.040 C 
ENDBRANCH   2   3
BRANCH   2  10
ATOM     10  C   UNL     1      -1.304  -1.452  -0.236  1.00  0.00     0.037 A 
ATOM     11  C   UNL     1      -1.723  -0.821  -1.416  1.00  0.00     0.026 A 
ATOM     12  C   UNL     1      -1.791  -2.742   0.029  1.00  0.00     0.026 A 
ATOM     13  C   UNL     1      -2.593  -1.462  -2.304  1.00  0.00     0.002 A 
ATOM     14  C   UNL     1      -2.658  -3.385  -0.857  1.00  0.00     0.002 A 
ATOM     15  C   UNL     1      -3.058  -2.744  -2.026  1.00  0.00     0.000 A 
ENDBRANCH   2  10
ENDBRANCH   1   2
BRANCH   1  16
ATOM     16  C   UNL     1      -2.027   1.000   1.527  1.00  0.00     0.024 A 
ATOM     17  C   UNL     1      -1.575   2.303   1.426  1.00  0.00     0.017 A 
ATOM     18  S   UNL     1      -3.730   0.920   1.314  1.00  0.00    -0.147 S 
ATOM     19  C   UNL     1      -2.623   3.228   1.150  1.00  0.00     0.012 A 
ATOM     20  C   UNL     1      -3.847   2.605   1.060  1.00  0.00     0.065 A 
ENDBRANCH   1  16
TORSDOF 4
