REMARK SMILES CCN(Cc1ccncc1)C(=O)C(CO)c1ccccc1
REMARK SMILES IDX 11 1 12 2 3 3 2 4 1 5 4 6 5 7 6 8 10 9 7 10 9 11 8 12 13 13
REMARK SMILES IDX 14 14 15 15 16 17 17 18 21 19 18 20 20 21 19 22
REMARK H PARENT 15 16
REMARK Flexibility Score: inf
ROOT
ATOM      1  C   UNL     1      -0.309   1.600   0.872  1.00  0.00     0.232 C 
ATOM      2  O   UNL     1      -0.615   2.122   1.953  1.00  0.00    -0.274 OA
ENDROOT
BRANCH   1   3
ATOM      3  N   UNL     1       0.945   1.013   0.693  1.00  0.00    -0.338 N 
BRANCH   3   4
ATOM      4  C   UNL     1       1.897   1.106   1.805  1.00  0.00     0.116 C 
ATOM      5  C   UNL     1       2.639   2.435   1.817  1.00  0.00     0.027 C 
ENDBRANCH   3   4
BRANCH   3   6
ATOM      6  C   UNL     1       1.463   0.485  -0.574  1.00  0.00     0.155 C 
BRANCH   6   7
ATOM      7  C   UNL     1       1.871  -0.969  -0.514  1.00  0.00    -0.026 A 
ATOM      8  C   UNL     1       3.041  -1.399  -1.152  1.00  0.00     0.025 A 
ATOM      9  C   UNL     1       1.079  -1.930   0.122  1.00  0.00     0.025 A 
ATOM     10  C   UNL     1       3.375  -2.744  -1.101  1.00  0.00     0.111 A 
ATOM     11  C   UNL     1       1.495  -3.253   0.116  1.00  0.00     0.111 A 
ATOM     12  N   UNL     1       2.630  -3.681  -0.479  1.00  0.00    -0.265 NA
ENDBRANCH   6   7
ENDBRANCH   3   6
ENDBRANCH   1   3
BRANCH   1  13
ATOM     13  C   UNL     1      -1.334   1.582  -0.275  1.00  0.00     0.134 C 
BRANCH  13  14
ATOM     14  C   UNL     1      -2.411   2.670  -0.059  1.00  0.00     0.174 C 
BRANCH  14  15
ATOM     15  O   UNL     1      -3.149   2.529   1.153  1.00  0.00    -0.395 OA
ATOM     16  H   UNL     1      -2.484   2.528   1.875  1.00  0.00     0.210 HD
ENDBRANCH  14  15
ENDBRANCH  13  14
BRANCH  13  17
ATOM     17  C   UNL     1      -1.959   0.207  -0.480  1.00  0.00    -0.033 A 
ATOM     18  C   UNL     1      -2.545  -0.498   0.584  1.00  0.00     0.004 A 
ATOM     19  C   UNL     1      -1.964  -0.382  -1.755  1.00  0.00     0.004 A 
ATOM     20  C   UNL     1      -3.094  -1.765   0.384  1.00  0.00     0.000 A 
ATOM     21  C   UNL     1      -2.512  -1.652  -1.952  1.00  0.00     0.000 A 
ATOM     22  C   UNL     1      -3.073  -2.345  -0.882  1.00  0.00     0.000 A 
ENDBRANCH  13  17
ENDBRANCH   1  13
TORSDOF 8
