REMARK SMILES CN1CCN(C2=Nc3ccccc3Sc3ccc(Cl)cc32)CC1
REMARK SMILES IDX 1 1 2 2 3 3 4 4 5 5 6 6 7 7 8 8 9 9 10 10 11 11 12 12 13 13
REMARK SMILES IDX 14 14 15 15 16 16 17 17 18 18 19 19 20 20 21 21 22 22 23 23
REMARK H PARENT
REMARK Flexibility Score: inf
ROOT
ATOM      1  C   UNL     1      -5.255  -0.524  -0.311  1.00  0.00     0.105 C 
ATOM      2  N   UNL     1      -3.944  -0.199   0.244  1.00  0.00    -0.303 NA
ATOM      3  C   UNL     1      -3.402   1.027  -0.379  1.00  0.00     0.105 C 
ATOM      4  C   UNL     1      -1.884   1.203  -0.160  1.00  0.00     0.133 C 
ATOM      5  N   UNL     1      -1.097   0.061  -0.694  1.00  0.00    -0.354 N 
ATOM      6  C   UNL     1       0.230  -0.099  -0.264  1.00  0.00     0.137 C 
ATOM      7  N   UNL     1       0.654  -1.290   0.059  1.00  0.00    -0.230 NA
ATOM      8  C   UNL     1       1.951  -1.587   0.513  1.00  0.00     0.079 A 
ATOM      9  C   UNL     1       2.592  -2.679  -0.085  1.00  0.00     0.029 A 
ATOM     10  C   UNL     1       3.843  -3.115   0.356  1.00  0.00     0.002 A 
ATOM     11  C   UNL     1       4.467  -2.470   1.420  1.00  0.00     0.001 A 
ATOM     12  C   UNL     1       3.841  -1.387   2.037  1.00  0.00     0.018 A 
ATOM     13  C   UNL     1       2.588  -0.942   1.591  1.00  0.00     0.038 A 
ATOM     14  S   UNL     1       1.875   0.499   2.377  1.00  0.00    -0.087 SA
ATOM     15  C   UNL     1       1.803   1.514   0.912  1.00  0.00     0.023 A 
ATOM     16  C   UNL     1       2.524   2.716   0.897  1.00  0.00     0.018 A 
ATOM     17  C   UNL     1       2.547   3.514  -0.250  1.00  0.00     0.022 A 
ATOM     18  C   UNL     1       1.853   3.111  -1.389  1.00  0.00     0.041 A 
ATOM     19  Cl  UNL     1       1.884   4.093  -2.801  1.00  0.00    -0.084 Cl
ATOM     20  C   UNL     1       1.126   1.925  -1.388  1.00  0.00     0.033 A 
ATOM     21  C   UNL     1       1.093   1.129  -0.234  1.00  0.00     0.032 A 
ATOM     22  C   UNL     1      -1.918  -1.141  -0.967  1.00  0.00     0.133 C 
ATOM     23  C   UNL     1      -2.995  -1.331   0.120  1.00  0.00     0.105 C 
ENDROOT
TORSDOF 0
