REMARK SMILES CCn1cc(C(=O)O)c(=O)c2cnc(N3CCNCC3)nc21
REMARK SMILES IDX 3 1 4 2 5 3 9 4 10 5 11 6 12 7 13 8 14 9 21 10 22 11 2 12
REMARK SMILES IDX 1 13 6 14 7 15 8 16 15 18 16 19 20 20 17 21 19 22 18 23
REMARK H PARENT 8 17 18 24
REMARK Flexibility Score: inf
ROOT
ATOM      1  N   UNL     1      -2.308  -0.460   0.310  1.00  0.00    -0.332 N 
ATOM      2  C   UNL     1      -3.558   0.135   0.362  1.00  0.00     0.107 C 
ATOM      3  C   UNL     1      -3.800   1.456   0.368  1.00  0.00     0.124 C 
ATOM      4  C   UNL     1      -2.618   2.352   0.337  1.00  0.00     0.207 C 
ATOM      5  O   UNL     1      -2.691   3.571   0.443  1.00  0.00    -0.288 OA
ATOM      6  C   UNL     1      -1.296   1.721   0.203  1.00  0.00     0.084 A 
ATOM      7  C   UNL     1      -0.149   2.462   0.092  1.00  0.00     0.131 A 
ATOM      8  N   UNL     1       1.073   1.909  -0.032  1.00  0.00    -0.221 NA
ATOM      9  C   UNL     1       1.154   0.568  -0.038  1.00  0.00     0.227 A 
ATOM     10  N   UNL     1       0.070  -0.220   0.070  1.00  0.00    -0.194 NA
ATOM     11  C   UNL     1      -1.150   0.347   0.191  1.00  0.00     0.149 A 
ENDROOT
BRANCH   1  12
ATOM     12  C   UNL     1      -2.108  -1.912   0.250  1.00  0.00     0.120 C 
ATOM     13  C   UNL     1      -2.079  -2.403  -1.190  1.00  0.00     0.027 C 
ENDBRANCH   1  12
BRANCH   3  14
ATOM     14  C   UNL     1      -5.202   1.894   0.403  1.00  0.00     0.341 C 
ATOM     15  O   UNL     1      -6.146   1.220   0.781  1.00  0.00    -0.246 OA
BRANCH  14  16
ATOM     16  O   UNL     1      -5.392   3.126  -0.088  1.00  0.00    -0.477 OA
ATOM     17  H   UNL     1      -6.352   3.294   0.004  1.00  0.00     0.297 HD
ENDBRANCH  14  16
ENDBRANCH   3  14
BRANCH   9  18
ATOM     18  N   UNL     1       2.389  -0.023  -0.188  1.00  0.00    -0.338 N 
ATOM     19  C   UNL     1       3.577   0.829  -0.164  1.00  0.00     0.135 C 
ATOM     20  C   UNL     1       2.547  -1.423   0.206  1.00  0.00     0.135 C 
ATOM     21  C   UNL     1       4.801   0.034  -0.671  1.00  0.00     0.102 C 
ATOM     22  C   UNL     1       3.936  -1.680   0.834  1.00  0.00     0.102 C 
ATOM     23  N   UNL     1       5.089  -1.232   0.035  1.00  0.00    -0.313 NA
ATOM     24  H   UNL     1       5.307  -1.940  -0.666  1.00  0.00     0.122 HD
ENDBRANCH   9  18
TORSDOF 4
