REMARK SMILES Cn1cnc2c(F)c(Nc3ccc(Br)cc3Cl)c(C(=O)NOCCO)cc21
REMARK SMILES IDX 19 1 20 2 21 3 18 5 1 6 2 7 3 8 27 9 4 10 5 11 26 12 6 13
REMARK SMILES IDX 7 14 8 15 9 16 10 18 11 19 16 20 12 21 15 22 17 23 13 24
REMARK SMILES IDX 14 25 22 26 23 27 24 28 25 29
REMARK H PARENT 21 4 9 17 25 30
REMARK Flexibility Score: inf
ROOT
ATOM      1  C   UNL     1       1.377  -0.134  -0.834  1.00  0.00     0.277 C 
ATOM      2  O   UNL     1       1.126  -0.772  -1.852  1.00  0.00    -0.267 OA
ATOM      3  N   UNL     1       2.510  -0.282  -0.061  1.00  0.00    -0.231 N 
ATOM      4  H   UNL     1       2.781   0.400   0.636  1.00  0.00     0.199 HD
ENDROOT
BRANCH   1   5
ATOM      5  C   UNL     1       0.396   0.868  -0.342  1.00  0.00     0.070 A 
ATOM      6  C   UNL     1       1.208   5.190   0.905  1.00  0.00     0.151 C 
ATOM      7  N   UNL     1       0.012   4.386   0.860  1.00  0.00    -0.334 N 
ATOM      8  C   UNL     1      -1.238   4.807   1.208  1.00  0.00     0.200 A 
ATOM      9  C   UNL     1      -0.073   3.075   0.457  1.00  0.00     0.072 A 
ATOM     10  N   UNL     1      -2.128   3.855   1.049  1.00  0.00    -0.234 NA
ATOM     11  C   UNL     1      -1.427   2.768   0.573  1.00  0.00     0.126 A 
ATOM     12  C   UNL     1       0.872   2.152  -0.002  1.00  0.00     0.045 A 
ATOM     13  C   UNL     1      -1.876   1.484   0.206  1.00  0.00     0.175 A 
ATOM     14  F   UNL     1      -3.191   1.223   0.264  1.00  0.00    -0.202 F 
ATOM     15  C   UNL     1      -0.972   0.510  -0.264  1.00  0.00     0.090 A 
BRANCH  15  16
ATOM     16  N   UNL     1      -1.361  -0.811  -0.599  1.00  0.00    -0.351 N 
ATOM     17  H   UNL     1      -0.817  -1.194  -1.383  1.00  0.00     0.167 HD
BRANCH  16  18
ATOM     18  C   UNL     1      -2.447  -1.629  -0.231  1.00  0.00     0.057 A 
ATOM     19  C   UNL     1      -3.128  -1.465   0.982  1.00  0.00     0.029 A 
ATOM     20  C   UNL     1      -2.889  -2.656  -1.093  1.00  0.00     0.065 A 
ATOM     21  C   UNL     1      -4.213  -2.282   1.322  1.00  0.00     0.018 A 
ATOM     22  C   UNL     1      -3.970  -3.477  -0.762  1.00  0.00     0.038 A 
ATOM     23  Cl  UNL     1      -2.093  -2.940  -2.606  1.00  0.00    -0.082 Cl
ATOM     24  C   UNL     1      -4.628  -3.282   0.447  1.00  0.00     0.019 A 
ATOM     25  Br  UNL     1      -6.092  -4.384   0.909  1.00  0.00    -0.051 Br
ENDBRANCH  16  18
ENDBRANCH  15  16
ENDBRANCH   1   5
BRANCH   3  26
ATOM     26  O   UNL     1       3.580  -0.951  -0.703  1.00  0.00    -0.271 OA
BRANCH  26  27
ATOM     27  C   UNL     1       3.573  -2.325  -0.284  1.00  0.00     0.222 C 
BRANCH  27  28
ATOM     28  C   UNL     1       4.638  -3.069  -1.080  1.00  0.00     0.187 C 
BRANCH  28  29
ATOM     29  O   UNL     1       5.934  -2.550  -0.776  1.00  0.00    -0.394 OA
ATOM     30  H   UNL     1       5.891  -1.597  -0.981  1.00  0.00     0.210 HD
ENDBRANCH  28  29
ENDBRANCH  27  28
ENDBRANCH  26  27
ENDBRANCH   3  26
TORSDOF 7
