REMARK SMILES CC(=O)Nc1ccc(OC(=O)c2ccccc2OC(C)=O)cc1
REMARK SMILES IDX 10 1 11 2 9 3 8 4 5 5 6 6 23 7 7 8 22 9 4 10 1 11 2 12 3 13
REMARK SMILES IDX 12 15 13 16 17 17 14 18 16 19 15 20 18 21 19 22 20 23 21 24
REMARK H PARENT 4 14
REMARK Flexibility Score: inf
ROOT
ATOM      1  C   UNL     1      -1.428   0.803   0.272  1.00  0.00     0.347 C 
ATOM      2  O   UNL     1      -1.332  -0.083   1.108  1.00  0.00    -0.246 OA
ENDROOT
BRANCH   1   3
ATOM      3  O   UNL     1      -0.417   1.342  -0.503  1.00  0.00    -0.423 OA
BRANCH   3   4
ATOM      4  C   UNL     1       0.810   0.698  -0.340  1.00  0.00     0.131 A 
ATOM      5  C   UNL     1       3.315  -0.507  -0.094  1.00  0.00     0.041 A 
ATOM      6  C   UNL     1       3.075   0.748   0.474  1.00  0.00     0.030 A 
ATOM      7  C   UNL     1       2.282  -1.146  -0.798  1.00  0.00     0.030 A 
ATOM      8  C   UNL     1       1.823   1.357   0.347  1.00  0.00     0.049 A 
ATOM      9  C   UNL     1       1.030  -0.542  -0.931  1.00  0.00     0.049 A 
BRANCH   5  10
ATOM     10  N   UNL     1       4.547  -1.189  -0.007  1.00  0.00    -0.326 N 
ATOM     11  C   UNL     1       6.821  -1.770   0.498  1.00  0.00     0.114 C 
ATOM     12  C   UNL     1       5.709  -0.756   0.607  1.00  0.00     0.221 C 
ATOM     13  O   UNL     1       5.895   0.318   1.166  1.00  0.00    -0.275 OA
ATOM     14  H   UNL     1       4.580  -2.096  -0.454  1.00  0.00     0.169 HD
ENDBRANCH   5  10
ENDBRANCH   3   4
ENDBRANCH   1   3
BRANCH   1  15
ATOM     15  C   UNL     1      -2.710   1.452  -0.101  1.00  0.00     0.103 A 
ATOM     16  C   UNL     1      -2.738   2.785  -0.543  1.00  0.00     0.019 A 
ATOM     17  C   UNL     1      -3.921   0.752   0.004  1.00  0.00     0.145 A 
ATOM     18  C   UNL     1      -3.953   3.398  -0.863  1.00  0.00     0.001 A 
ATOM     19  C   UNL     1      -5.138   1.370  -0.298  1.00  0.00     0.048 A 
ATOM     20  C   UNL     1      -5.150   2.692  -0.738  1.00  0.00     0.004 A 
BRANCH  17  21
ATOM     21  O   UNL     1      -3.997  -0.569   0.465  1.00  0.00    -0.426 OA
BRANCH  21  22
ATOM     22  C   UNL     1      -3.467  -1.509  -0.412  1.00  0.00     0.308 C 
ATOM     23  C   UNL     1      -3.525  -2.862   0.230  1.00  0.00     0.139 C 
ATOM     24  O   UNL     1      -3.028  -1.292  -1.535  1.00  0.00    -0.252 OA
ENDBRANCH  21  22
ENDBRANCH  17  21
ENDBRANCH   1  15
TORSDOF 6
