REMARK SMILES CC1=NN(c2ccc(C)c(C)c2)C(=O)/C1=N\Nc1cccc(-c2cccc(C(=O)O)c2)c1O
REMARK SMILES IDX 18 1 19 2 20 3 21 4 22 5 32 6 17 7 16 9 1 10 2 11 3 12 15 13
REMARK SMILES IDX 4 14 13 15 14 16 5 17 6 18 12 19 7 20 10 21 8 22 11 23 9 24
REMARK SMILES IDX 33 25 23 27 24 28 31 29 25 30 27 31 26 32 28 33 29 34 30 35
REMARK H PARENT 17 8 33 26 30 36
REMARK Flexibility Score: inf
ROOT
ATOM      1  C   UNL     1       2.040   1.432  -0.718  1.00  0.00     0.099 A 
ATOM      2  C   UNL     1       2.380   2.601  -1.406  1.00  0.00     0.031 A 
ATOM      3  C   UNL     1       3.665   2.778  -1.923  1.00  0.00     0.003 A 
ATOM      4  C   UNL     1       4.637   1.793  -1.739  1.00  0.00     0.013 A 
ATOM      5  C   UNL     1       4.350   0.628  -1.012  1.00  0.00     0.026 A 
ATOM      6  C   UNL     1       3.054   0.480  -0.490  1.00  0.00     0.148 A 
ENDROOT
BRANCH   1   7
ATOM      7  N   UNL     1       0.750   1.217  -0.171  1.00  0.00    -0.274 N 
ATOM      8  H   UNL     1       0.494   0.219  -0.181  1.00  0.00     0.190 HD
BRANCH   7   9
ATOM      9  N   UNL     1      -0.219   2.147  -0.407  1.00  0.00    -0.168 NA
ATOM     10  C   UNL     1      -2.505   4.050  -0.812  1.00  0.00     0.071 C 
ATOM     11  C   UNL     1      -2.626   2.637  -0.384  1.00  0.00     0.092 C 
ATOM     12  N   UNL     1      -3.719   1.987  -0.117  1.00  0.00    -0.167 NA
ATOM     13  C   UNL     1      -1.441   1.761  -0.215  1.00  0.00     0.173 C 
ATOM     14  N   UNL     1      -3.354   0.674   0.236  1.00  0.00    -0.195 N 
ATOM     15  C   UNL     1      -1.985   0.430   0.201  1.00  0.00     0.301 C 
ATOM     16  O   UNL     1      -1.284  -0.540   0.409  1.00  0.00    -0.265 OA
BRANCH  14  17
ATOM     17  C   UNL     1      -4.384  -0.245   0.562  1.00  0.00     0.069 A 
ATOM     18  C   UNL     1      -4.106  -1.570   0.903  1.00  0.00     0.029 A 
ATOM     19  C   UNL     1      -5.728   0.163   0.549  1.00  0.00     0.032 A 
ATOM     20  C   UNL     1      -5.139  -2.463   1.212  1.00  0.00     0.006 A 
ATOM     21  C   UNL     1      -6.777  -0.719   0.868  1.00  0.00    -0.046 A 
ATOM     22  C   UNL     1      -6.478  -2.054   1.189  1.00  0.00    -0.048 A 
ATOM     23  C   UNL     1      -8.194  -0.218   0.823  1.00  0.00     0.044 C 
ATOM     24  C   UNL     1      -7.556  -3.045   1.531  1.00  0.00     0.044 C 
ENDBRANCH  14  17
ENDBRANCH   7   9
ENDBRANCH   1   7
BRANCH   6  25
ATOM     25  O   UNL     1       2.773  -0.617   0.291  1.00  0.00    -0.505 OA
ATOM     26  H   UNL     1       2.132  -0.316   0.959  1.00  0.00     0.293 HD
ENDBRANCH   6  25
BRANCH   5  27
ATOM     27  C   UNL     1       5.401  -0.372  -0.796  1.00  0.00    -0.014 A 
ATOM     28  C   UNL     1       5.672  -1.346  -1.769  1.00  0.00     0.009 A 
ATOM     29  C   UNL     1       6.164  -0.366   0.382  1.00  0.00     0.024 A 
ATOM     30  C   UNL     1       6.680  -2.293  -1.572  1.00  0.00     0.002 A 
ATOM     31  C   UNL     1       7.176  -1.314   0.585  1.00  0.00     0.060 A 
ATOM     32  C   UNL     1       7.432  -2.278  -0.397  1.00  0.00     0.016 A 
BRANCH  31  33
ATOM     33  C   UNL     1       7.948  -1.257   1.849  1.00  0.00     0.335 C 
ATOM     34  O   UNL     1       7.807  -0.438   2.738  1.00  0.00    -0.246 OA
BRANCH  33  35
ATOM     35  O   UNL     1       8.871  -2.231   1.944  1.00  0.00    -0.478 OA
ATOM     36  H   UNL     1       9.291  -2.066   2.815  1.00  0.00     0.297 HD
ENDBRANCH  33  35
ENDBRANCH  31  33
ENDBRANCH   5  27
TORSDOF 7
