REMARK SMILES OC(CCN1CCCC1)(c1ccccc1)C1CCCCC1
REMARK SMILES IDX 3 1 2 2 1 3 10 5 11 6 15 7 12 8 14 9 13 10 16 11 17 12 21 13
REMARK SMILES IDX 18 14 20 15 19 16 4 17 5 18 6 19 9 20 7 21 8 22
REMARK H PARENT 1 4
REMARK Flexibility Score: inf
ROOT
ATOM      1  C   UNL     1       0.931   0.425  -0.179  1.00  0.00     0.056 C 
ENDROOT
BRANCH   1   2
ATOM      2  C   UNL     1      -0.503   0.518   0.431  1.00  0.00     0.094 C 
BRANCH   2   3
ATOM      3  O   UNL     1      -0.435   0.005   1.770  1.00  0.00    -0.385 OA
ATOM      4  H   UNL     1      -1.323   0.104   2.154  1.00  0.00     0.211 HD
ENDBRANCH   2   3
BRANCH   2   5
ATOM      5  C   UNL     1      -0.826   2.029   0.482  1.00  0.00    -0.016 A 
ATOM      6  C   UNL     1      -0.842   2.742   1.694  1.00  0.00     0.007 A 
ATOM      7  C   UNL     1      -1.062   2.751  -0.705  1.00  0.00     0.007 A 
ATOM      8  C   UNL     1      -1.118   4.112   1.721  1.00  0.00     0.000 A 
ATOM      9  C   UNL     1      -1.339   4.120  -0.676  1.00  0.00     0.000 A 
ATOM     10  C   UNL     1      -1.372   4.799   0.538  1.00  0.00     0.000 A 
ENDBRANCH   2   5
BRANCH   2  11
ATOM     11  C   UNL     1      -1.593  -0.323  -0.347  1.00  0.00     0.025 C 
ATOM     12  C   UNL     1      -1.521  -1.855  -0.076  1.00  0.00     0.007 C 
ATOM     13  C   UNL     1      -3.044   0.179  -0.099  1.00  0.00     0.007 C 
ATOM     14  C   UNL     1      -2.696  -2.411   0.724  1.00  0.00     0.000 C 
ATOM     15  C   UNL     1      -4.083  -0.791  -0.653  1.00  0.00     0.000 C 
ATOM     16  C   UNL     1      -4.033  -2.146   0.043  1.00  0.00     0.000 C 
ENDBRANCH   2  11
ENDBRANCH   1   2
BRANCH   1  17
ATOM     17  C   UNL     1       1.597  -0.955  -0.196  1.00  0.00     0.088 C 
BRANCH  17  18
ATOM     18  N   UNL     1       2.962  -0.912  -0.745  1.00  0.00    -0.303 NA
ATOM     19  C   UNL     1       3.917  -0.213   0.120  1.00  0.00     0.084 C 
ATOM     20  C   UNL     1       3.521  -2.258  -0.901  1.00  0.00     0.084 C 
ATOM     21  C   UNL     1       5.275  -0.688  -0.382  1.00  0.00     0.017 C 
ATOM     22  C   UNL     1       4.997  -1.984  -1.133  1.00  0.00     0.017 C 
ENDBRANCH  17  18
ENDBRANCH   1  17
TORSDOF 6
