REMARK SMILES COc1ccc2c(C(=O)c3ccc(Cl)cc3)c(C)n(CC(=O)O)c2c1
REMARK SMILES IDX 3 1 4 2 5 3 6 4 7 5 17 6 18 7 19 8 24 9 25 10 2 11 1 12
REMARK SMILES IDX 20 13 21 14 22 15 23 16 8 18 9 19 10 20 11 21 16 22 12 23
REMARK SMILES IDX 15 24 13 25 14 26
REMARK H PARENT 23 17
REMARK Flexibility Score: inf
ROOT
ATOM      1  C   UNL     1       3.002  -0.674  -0.135  1.00  0.00     0.120 A 
ATOM      2  C   UNL     1       2.121  -1.736   0.033  1.00  0.00     0.047 A 
ATOM      3  C   UNL     1       0.790  -1.507   0.408  1.00  0.00     0.015 A 
ATOM      4  C   UNL     1       0.324  -0.189   0.612  1.00  0.00     0.011 A 
ATOM      5  C   UNL     1      -0.941   0.380   0.976  1.00  0.00     0.051 A 
ATOM      6  C   UNL     1      -0.761   1.756   1.074  1.00  0.00     0.027 A 
ATOM      7  C   UNL     1      -1.751   2.817   1.426  1.00  0.00     0.065 C 
ATOM      8  N   UNL     1       0.555   2.030   0.762  1.00  0.00    -0.333 N 
ATOM      9  C   UNL     1       1.230   0.861   0.462  1.00  0.00     0.053 A 
ATOM     10  C   UNL     1       2.565   0.638   0.081  1.00  0.00     0.073 A 
ENDROOT
BRANCH   1  11
ATOM     11  O   UNL     1       4.319  -0.773  -0.501  1.00  0.00    -0.497 OA
ATOM     12  C   UNL     1       4.823  -2.080  -0.744  1.00  0.00     0.278 C 
ENDBRANCH   1  11
BRANCH   8  13
ATOM     13  C   UNL     1       1.180   3.348   0.796  1.00  0.00     0.244 C 
BRANCH  13  14
ATOM     14  C   UNL     1       1.163   4.030  -0.545  1.00  0.00     0.323 C 
ATOM     15  O   UNL     1       0.536   3.724  -1.545  1.00  0.00    -0.250 OA
BRANCH  14  16
ATOM     16  O   UNL     1       1.941   5.136  -0.557  1.00  0.00    -0.480 OA
ATOM     17  H   UNL     1       1.841   5.487  -1.468  1.00  0.00     0.296 HD
ENDBRANCH  14  16
ENDBRANCH  13  14
ENDBRANCH   8  13
BRANCH   5  18
ATOM     18  C   UNL     1      -2.203  -0.309   1.239  1.00  0.00     0.195 C 
ATOM     19  O   UNL     1      -2.913  -0.031   2.203  1.00  0.00    -0.289 OA
BRANCH  18  20
ATOM     20  C   UNL     1      -2.656  -1.375   0.302  1.00  0.00     0.023 A 
ATOM     21  C   UNL     1      -2.351  -1.338  -1.066  1.00  0.00     0.014 A 
ATOM     22  C   UNL     1      -3.446  -2.418   0.807  1.00  0.00     0.014 A 
ATOM     23  C   UNL     1      -2.807  -2.353  -1.913  1.00  0.00     0.021 A 
ATOM     24  C   UNL     1      -3.901  -3.431  -0.042  1.00  0.00     0.021 A 
ATOM     25  C   UNL     1      -3.575  -3.396  -1.397  1.00  0.00     0.041 A 
ATOM     26  Cl  UNL     1      -4.132  -4.644  -2.442  1.00  0.00    -0.084 Cl
ENDBRANCH  18  20
ENDBRANCH   5  18
TORSDOF 6
