REMARK SMILES CN1C(C(=O)Nc2ccccn2)=C(O)c2sc(Cl)cc2S1(=O)=O
REMARK SMILES IDX 1 1 2 2 3 3 13 4 15 5 16 6 17 7 18 8 19 9 20 10 21 11 22 12
REMARK SMILES IDX 23 13 4 14 5 15 6 16 7 18 8 19 12 20 9 21 11 22 10 23 14 24
REMARK H PARENT 6 17 14 25
REMARK Flexibility Score: inf
ROOT
ATOM      1  C   UNL     1      -1.141  -2.822  -0.738  1.00  0.00     0.164 C 
ATOM      2  N   UNL     1      -1.647  -1.459  -0.478  1.00  0.00    -0.260 N 
ATOM      3  C   UNL     1      -0.762  -0.417   0.049  1.00  0.00     0.160 C 
ATOM      4  C   UNL     1      -1.248   0.831   0.271  1.00  0.00     0.164 C 
ATOM      5  C   UNL     1      -2.631   1.154   0.118  1.00  0.00     0.093 A 
ATOM      6  S   UNL     1      -3.253   2.759   0.099  1.00  0.00    -0.118 S 
ATOM      7  C   UNL     1      -4.847   2.204  -0.078  1.00  0.00     0.095 A 
ATOM      8  Cl  UNL     1      -6.131   3.339  -0.181  1.00  0.00    -0.072 Cl
ATOM      9  C   UNL     1      -4.955   0.840  -0.122  1.00  0.00     0.055 A 
ATOM     10  C   UNL     1      -3.668   0.258  -0.008  1.00  0.00     0.111 A 
ATOM     11  S   UNL     1      -3.270  -1.406  -0.009  1.00  0.00     0.265 S 
ATOM     12  O   UNL     1      -4.099  -1.957  -1.057  1.00  0.00    -0.201 OA
ATOM     13  O   UNL     1      -3.397  -1.792   1.377  1.00  0.00    -0.201 OA
ENDROOT
BRANCH   3  14
ATOM     14  C   UNL     1       0.709  -0.751   0.279  1.00  0.00     0.278 C 
ATOM     15  O   UNL     1       1.021  -1.884   0.632  1.00  0.00    -0.267 OA
ATOM     16  N   UNL     1       1.575   0.293   0.039  1.00  0.00    -0.305 N 
ATOM     17  H   UNL     1       1.165   1.205  -0.111  1.00  0.00     0.171 HD
BRANCH  16  18
ATOM     18  C   UNL     1       2.972   0.231   0.092  1.00  0.00     0.132 A 
ATOM     19  C   UNL     1       3.668   1.425  -0.077  1.00  0.00     0.047 A 
ATOM     20  N   UNL     1       3.605  -0.939   0.279  1.00  0.00    -0.239 NA
ATOM     21  C   UNL     1       5.062   1.411  -0.042  1.00  0.00     0.005 A 
ATOM     22  C   UNL     1       4.955  -0.932   0.313  1.00  0.00     0.113 A 
ATOM     23  C   UNL     1       5.722   0.208   0.159  1.00  0.00     0.020 A 
ENDBRANCH  16  18
ENDBRANCH   3  14
BRANCH   4  24
ATOM     24  O   UNL     1      -0.438   1.876   0.690  1.00  0.00    -0.504 OA
ATOM     25  H   UNL     1      -1.019   2.622   0.941  1.00  0.00     0.293 HD
ENDBRANCH   4  24
TORSDOF 3
