REMARK SMILES CNC(=O)Oc1ccc2c(c1)[C@]1(C)CCN(C)[C@@H]1N2C
REMARK SMILES IDX 5 1 3 2 1 3 2 4 4 6 6 7 7 8 11 9 8 10 10 11 9 12 12 13 19 14
REMARK SMILES IDX 13 15 14 16 18 17 20 18 15 19 16 20 17 21
REMARK H PARENT 2 5
REMARK Flexibility Score: inf
ROOT
ATOM      1  O   UNL     1       3.421   1.085  -0.611  1.00  0.00    -0.410 OA
ENDROOT
BRANCH   1   2
ATOM      2  C   UNL     1       4.171  -0.064  -0.412  1.00  0.00     0.412 C 
ATOM      3  C   UNL     1       6.452  -0.866  -0.828  1.00  0.00     0.146 C 
ATOM      4  N   UNL     1       5.401   0.101  -0.988  1.00  0.00    -0.324 N 
ATOM      5  H   UNL     1       5.609   1.027  -1.335  1.00  0.00     0.166 HD
ATOM      6  O   UNL     1       3.815  -1.069   0.187  1.00  0.00    -0.224 OA
ENDBRANCH   1   2
BRANCH   1   7
ATOM      7  C   UNL     1       2.118   1.063  -0.095  1.00  0.00     0.133 A 
ATOM      8  C   UNL     1       1.786   2.033   0.855  1.00  0.00     0.049 A 
ATOM      9  C   UNL     1       1.169   0.165  -0.579  1.00  0.00     0.053 A 
ATOM     10  C   UNL     1       0.484   2.093   1.362  1.00  0.00     0.030 A 
ATOM     11  C   UNL     1      -0.116   0.237  -0.054  1.00  0.00    -0.011 A 
ATOM     12  C   UNL     1      -0.466   1.187   0.908  1.00  0.00     0.042 A 
ATOM     13  C   UNL     1      -1.295  -0.647  -0.351  1.00  0.00     0.030 C 
ATOM     14  N   UNL     1      -1.812   1.124   1.261  1.00  0.00    -0.358 N 
ATOM     15  C   UNL     1      -0.954  -2.122  -0.113  1.00  0.00     0.020 C 
ATOM     16  C   UNL     1      -1.906  -0.410  -1.737  1.00  0.00     0.031 C 
ATOM     17  C   UNL     1      -2.375  -0.100   0.656  1.00  0.00     0.163 C 
ATOM     18  C   UNL     1      -2.225   1.484   2.601  1.00  0.00     0.145 C 
ATOM     19  C   UNL     1      -3.143   0.438  -1.470  1.00  0.00     0.087 C 
ATOM     20  N   UNL     1      -3.613   0.065  -0.131  1.00  0.00    -0.286 NA
ATOM     21  C   UNL     1      -4.438  -1.135  -0.146  1.00  0.00     0.107 C 
ENDBRANCH   1   7
TORSDOF 2
