REMARK SMILES COc1nc(C)nc(Cl)c1NC1=NCCN1
REMARK SMILES IDX 3 1 4 2 5 3 6 4 7 5 8 6 9 7 10 8 2 9 1 10 11 11 12 12 13 14
REMARK SMILES IDX 16 15 14 16 15 17
REMARK H PARENT 11 13 16 18
REMARK Flexibility Score: inf
ROOT
ATOM      1  C   UNL     1      -1.096   0.322  -0.602  1.00  0.00     0.242 A 
ATOM      2  N   UNL     1      -2.420   0.330  -0.322  1.00  0.00    -0.197 NA
ATOM      3  C   UNL     1      -3.055  -0.851  -0.360  1.00  0.00     0.131 A 
ATOM      4  C   UNL     1      -4.509  -0.869  -0.007  1.00  0.00     0.090 C 
ATOM      5  N   UNL     1      -2.472  -2.017  -0.661  1.00  0.00    -0.219 NA
ATOM      6  C   UNL     1      -1.155  -1.953  -0.936  1.00  0.00     0.160 A 
ATOM      7  Cl  UNL     1      -0.479  -3.495  -1.324  1.00  0.00    -0.060 Cl
ATOM      8  C   UNL     1      -0.373  -0.812  -0.938  1.00  0.00     0.142 A 
ENDROOT
BRANCH   1   9
ATOM      9  O   UNL     1      -0.451   1.543  -0.694  1.00  0.00    -0.479 OA
ATOM     10  C   UNL     1      -1.050   2.538   0.128  1.00  0.00     0.280 C 
ENDBRANCH   1   9
BRANCH   8  11
ATOM     11  N   UNL     1       1.013  -0.833  -1.195  1.00  0.00    -0.319 N 
ATOM     12  C   UNL     1       1.916  -0.365  -0.290  1.00  0.00     0.196 C 
ATOM     13  H   UNL     1       1.317  -1.702  -1.619  1.00  0.00     0.170 HD
ATOM     14  N   UNL     1       1.708   0.151   0.886  1.00  0.00    -0.251 NA
ATOM     15  N   UNL     1       3.212  -0.484  -0.705  1.00  0.00    -0.354 N 
ATOM     16  C   UNL     1       3.070   0.439   1.408  1.00  0.00     0.167 C 
ATOM     17  C   UNL     1       4.024   0.278   0.224  1.00  0.00     0.139 C 
ATOM     18  H   UNL     1       3.348  -0.238  -1.679  1.00  0.00     0.163 HD
ENDBRANCH   8  11
TORSDOF 2
