REMARK SMILES Fc1cc(-c2ccc3c(n2)[nH]c2ccncc23)ccn1
REMARK SMILES IDX 5 1 10 2 9 3 8 4 7 5 6 6 17 7 12 8 11 9 13 10 14 11 15 12
REMARK SMILES IDX 16 13 4 15 1 16 2 17 3 18 20 19 19 20 18 21
REMARK H PARENT 11 14
REMARK Flexibility Score: inf
ROOT
ATOM      1  C   UNL     1      -1.340  -0.219  -0.121  1.00  0.00     0.073 A 
ATOM      2  N   UNL     1      -0.492   0.755   0.301  1.00  0.00    -0.230 NA
ATOM      3  C   UNL     1       0.813   0.450   0.204  1.00  0.00     0.139 A 
ATOM      4  C   UNL     1       1.375  -0.725  -0.269  1.00  0.00     0.028 A 
ATOM      5  C   UNL     1       0.489  -1.720  -0.700  1.00  0.00     0.015 A 
ATOM      6  C   UNL     1      -0.882  -1.447  -0.618  1.00  0.00     0.030 A 
ATOM      7  C   UNL     1       2.793  -0.579  -0.177  1.00  0.00     0.027 A 
ATOM      8  C   UNL     1       3.046   0.689   0.354  1.00  0.00     0.051 A 
ATOM      9  N   UNL     1       1.827   1.288   0.574  1.00  0.00    -0.339 N 
ATOM     10  C   UNL     1       4.340   1.156   0.576  1.00  0.00     0.047 A 
ATOM     11  C   UNL     1       5.348   0.268   0.232  1.00  0.00     0.113 A 
ATOM     12  N   UNL     1       5.153  -0.966  -0.283  1.00  0.00    -0.264 NA
ATOM     13  C   UNL     1       3.884  -1.398  -0.491  1.00  0.00     0.122 A 
ATOM     14  H   UNL     1       1.679   2.210   0.952  1.00  0.00     0.168 HD
ENDROOT
BRANCH   1  15
ATOM     15  C   UNL     1      -2.785   0.129  -0.009  1.00  0.00     0.006 A 
ATOM     16  F   UNL     1      -6.102  -1.188  -0.630  1.00  0.00    -0.185 F 
ATOM     17  C   UNL     1      -5.138  -0.334  -0.254  1.00  0.00     0.213 A 
ATOM     18  C   UNL     1      -3.818  -0.737  -0.391  1.00  0.00     0.070 A 
ATOM     19  N   UNL     1      -5.523   0.859   0.231  1.00  0.00    -0.228 NA
ATOM     20  C   UNL     1      -4.534   1.692   0.598  1.00  0.00     0.115 A 
ATOM     21  C   UNL     1      -3.186   1.378   0.498  1.00  0.00     0.030 A 
ENDBRANCH   1  15
TORSDOF 1
