REMARK SMILES O=C1c2cccc3c2[C@H](CCC3)CN1[C@@H]1CN2CCC1CC2
REMARK SMILES IDX 1 1 2 2 3 3 4 4 5 5 6 6 7 7 8 8 9 9 10 10 11 11 12 12 13 13
REMARK SMILES IDX 14 14 15 15 16 16 20 17 17 18 19 19 21 20 18 21 22 22
REMARK H PARENT
REMARK Flexibility Score: inf
ROOT
ATOM      1  O   UNL     1       0.355  -0.699  -2.829  1.00  0.00    -0.269 OA
ATOM      2  C   UNL     1      -0.229  -0.499  -1.767  1.00  0.00     0.254 C 
ATOM      3  C   UNL     1      -1.687  -0.173  -1.783  1.00  0.00     0.043 A 
ATOM      4  C   UNL     1      -2.309   0.130  -2.999  1.00  0.00     0.014 A 
ATOM      5  C   UNL     1      -3.656   0.489  -3.023  1.00  0.00     0.001 A 
ATOM      6  C   UNL     1      -4.377   0.572  -1.832  1.00  0.00     0.004 A 
ATOM      7  C   UNL     1      -3.763   0.283  -0.607  1.00  0.00    -0.044 A 
ATOM      8  C   UNL     1      -2.423  -0.138  -0.586  1.00  0.00    -0.027 A 
ATOM      9  C   UNL     1      -1.740  -0.563   0.693  1.00  0.00     0.040 C 
ATOM     10  C   UNL     1      -2.479  -0.193   1.992  1.00  0.00     0.010 C 
ATOM     11  C   UNL     1      -3.579   0.846   1.806  1.00  0.00     0.005 C 
ATOM     12  C   UNL     1      -4.526   0.432   0.681  1.00  0.00     0.036 C 
ATOM     13  C   UNL     1      -0.308  -0.019   0.653  1.00  0.00     0.128 C 
ATOM     14  N   UNL     1       0.405  -0.550  -0.514  1.00  0.00    -0.333 N 
ENDROOT
BRANCH  14  15
ATOM     15  C   UNL     1       1.866  -0.746  -0.493  1.00  0.00     0.102 C 
ATOM     16  C   UNL     1       2.423  -1.605   0.675  1.00  0.00     0.109 C 
ATOM     17  C   UNL     1       2.684   0.569  -0.578  1.00  0.00     0.015 C 
ATOM     18  N   UNL     1       3.667  -1.024   1.246  1.00  0.00    -0.301 NA
ATOM     19  C   UNL     1       2.759   1.260   0.795  1.00  0.00     0.021 C 
ATOM     20  C   UNL     1       4.132   0.158  -0.918  1.00  0.00     0.021 C 
ATOM     21  C   UNL     1       3.339   0.290   1.837  1.00  0.00     0.085 C 
ATOM     22  C   UNL     1       4.647  -0.823   0.153  1.00  0.00     0.085 C 
ENDBRANCH  14  15
TORSDOF 1
