REMARK SMILES C=CCN1CC[C@]23c4c5ccc(O)c4O[C@H]2C(=O)CC[C@@]3(O)[C@H]1C5
REMARK SMILES IDX 4 1 5 2 6 3 7 4 8 5 9 6 10 7 11 8 12 9 14 10 15 11 16 12
REMARK SMILES IDX 17 13 18 14 19 15 20 16 21 17 23 18 24 19 3 20 2 21 1 22
REMARK SMILES IDX 22 23 13 25
REMARK H PARENT 22 24 13 26
REMARK Flexibility Score: inf
ROOT
ATOM      1  N   UNL     1       1.695   0.904   0.727  1.00  0.00    -0.293 NA
ATOM      2  C   UNL     1       1.401   0.175   1.947  1.00  0.00     0.086 C 
ATOM      3  C   UNL     1      -0.058  -0.314   2.028  1.00  0.00     0.035 C 
ATOM      4  C   UNL     1      -0.677  -0.692   0.654  1.00  0.00     0.075 C 
ATOM      5  C   UNL     1      -1.498   0.453   0.150  1.00  0.00     0.015 A 
ATOM      6  C   UNL     1      -1.068   1.492  -0.659  1.00  0.00    -0.038 A 
ATOM      7  C   UNL     1      -2.010   2.468  -0.986  1.00  0.00     0.008 A 
ATOM      8  C   UNL     1      -3.338   2.367  -0.516  1.00  0.00     0.050 A 
ATOM      9  C   UNL     1      -3.745   1.266   0.248  1.00  0.00     0.158 A 
ATOM     10  C   UNL     1      -2.812   0.300   0.549  1.00  0.00     0.166 A 
ATOM     11  O   UNL     1      -3.017  -0.902   1.185  1.00  0.00    -0.477 OA
ATOM     12  C   UNL     1      -1.842  -1.684   0.807  1.00  0.00     0.253 C 
ATOM     13  C   UNL     1      -2.146  -2.495  -0.468  1.00  0.00     0.174 C 
ATOM     14  O   UNL     1      -3.268  -2.943  -0.719  1.00  0.00    -0.295 OA
ATOM     15  C   UNL     1      -0.987  -2.834  -1.377  1.00  0.00     0.083 C 
ATOM     16  C   UNL     1      -0.143  -1.597  -1.670  1.00  0.00     0.046 C 
ATOM     17  C   UNL     1       0.420  -1.008  -0.365  1.00  0.00     0.095 C 
ATOM     18  C   UNL     1       1.223   0.342  -0.555  1.00  0.00     0.094 C 
ATOM     19  C   UNL     1       0.330   1.442  -1.225  1.00  0.00     0.058 C 
ENDROOT
BRANCH   1  20
ATOM     20  C   UNL     1       2.933   1.664   0.700  1.00  0.00     0.111 C 
BRANCH  20  21
ATOM     21  C   UNL     1       4.252   0.953   0.554  1.00  0.00    -0.019 C 
ATOM     22  C   UNL     1       4.527  -0.358   0.558  1.00  0.00     0.005 C 
ENDBRANCH  20  21
ENDBRANCH   1  20
BRANCH  17  23
ATOM     23  O   UNL     1       1.271  -2.041   0.168  1.00  0.00    -0.387 OA
ATOM     24  H   UNL     1       2.090  -2.042  -0.360  1.00  0.00     0.211 HD
ENDBRANCH  17  23
BRANCH   9  25
ATOM     25  O   UNL     1      -5.031   1.127   0.668  1.00  0.00    -0.504 OA
ATOM     26  H   UNL     1      -5.558   1.862   0.321  1.00  0.00     0.293 HD
ENDBRANCH   9  25
TORSDOF 4
