REMARK SMILES C=CC(=O)N1CCC([C@@H]2CCNc3c(C(N)=O)c(-c4ccc(Oc5ccccc5)cc4)nn32)CC1
REMARK SMILES IDX 9 1 10 2 11 3 12 4 13 5 14 6 18 7 32 8 33 9 8 11 3 12 4 13
REMARK SMILES IDX 5 14 6 15 35 16 7 17 34 18 2 19 1 20 15 21 16 22 17 23 19 26
REMARK SMILES IDX 20 27 31 28 21 29 30 30 22 31 23 32 24 33 25 34 29 35 26 36
REMARK SMILES IDX 28 37 27 38
REMARK H PARENT 12 10 16 24 16 25
REMARK Flexibility Score: inf
ROOT
ATOM      1  C   UNL     1      -2.346  -1.224   1.872  1.00  0.00     0.114 C 
ATOM      2  C   UNL     1      -2.788  -1.022   3.338  1.00  0.00     0.049 C 
ATOM      3  C   UNL     1      -2.695   0.452   3.750  1.00  0.00     0.116 C 
ATOM      4  N   UNL     1      -1.396   1.009   3.414  1.00  0.00    -0.370 N 
ATOM      5  C   UNL     1      -0.608   0.471   2.454  1.00  0.00     0.138 A 
ATOM      6  C   UNL     1       0.652   0.788   1.980  1.00  0.00     0.109 A 
ATOM      7  C   UNL     1       0.937  -0.257   1.032  1.00  0.00     0.107 A 
ATOM      8  N   UNL     1      -0.111  -1.089   0.882  1.00  0.00    -0.170 NA
ATOM      9  N   UNL     1      -1.026  -0.610   1.732  1.00  0.00    -0.245 N 
ATOM     10  H   UNL     1      -1.065   1.807   3.964  1.00  0.00     0.162 HD
ENDROOT
BRANCH   1  11
ATOM     11  C   UNL     1      -3.364  -0.664   0.835  1.00  0.00     0.017 C 
ATOM     12  C   UNL     1      -6.406  -0.027  -1.969  1.00  0.00     0.245 C 
ATOM     13  O   UNL     1      -7.556  -0.398  -1.738  1.00  0.00    -0.270 OA
ATOM     14  N   UNL     1      -5.305  -0.502  -1.267  1.00  0.00    -0.339 N 
ATOM     15  C   UNL     1      -5.513  -1.561  -0.290  1.00  0.00     0.120 C 
ATOM     16  C   UNL     1      -3.916  -0.173  -1.576  1.00  0.00     0.120 C 
ATOM     17  C   UNL     1      -4.765  -1.295   1.017  1.00  0.00     0.027 C 
ATOM     18  C   UNL     1      -2.908  -0.823  -0.627  1.00  0.00     0.027 C 
BRANCH  12  19
ATOM     19  C   UNL     1      -6.149   0.982  -3.039  1.00  0.00     0.063 C 
ATOM     20  C   UNL     1      -7.167   1.502  -3.741  1.00  0.00     0.014 C 
ENDBRANCH  12  19
ENDBRANCH   1  11
BRANCH   6  21
ATOM     21  C   UNL     1       1.426   1.934   2.419  1.00  0.00     0.254 C 
ATOM     22  N   UNL     1       2.374   2.403   1.555  1.00  0.00    -0.365 N 
ATOM     23  O   UNL     1       1.235   2.523   3.480  1.00  0.00    -0.269 OA
ATOM     24  H   UNL     1       2.805   3.283   1.800  1.00  0.00     0.159 HD
ATOM     25  H   UNL     1       2.417   2.106   0.590  1.00  0.00     0.159 HD
ENDBRANCH   6  21
BRANCH   7  26
ATOM     26  C   UNL     1       2.157  -0.512   0.267  1.00  0.00     0.003 A 
ATOM     27  C   UNL     1       2.075  -0.789  -1.106  1.00  0.00     0.014 A 
ATOM     28  C   UNL     1       3.412  -0.517   0.891  1.00  0.00     0.014 A 
ATOM     29  C   UNL     1       3.230  -1.038  -1.850  1.00  0.00     0.048 A 
ATOM     30  C   UNL     1       4.570  -0.760   0.147  1.00  0.00     0.048 A 
ATOM     31  C   UNL     1       4.475  -1.000  -1.225  1.00  0.00     0.127 A 
BRANCH  31  32
ATOM     32  O   UNL     1       5.579  -1.283  -1.994  1.00  0.00    -0.457 OA
BRANCH  32  33
ATOM     33  C   UNL     1       6.613  -0.373  -1.961  1.00  0.00     0.127 A 
ATOM     34  C   UNL     1       7.907  -0.891  -1.898  1.00  0.00     0.047 A 
ATOM     35  C   UNL     1       6.412   1.006  -2.063  1.00  0.00     0.047 A 
ATOM     36  C   UNL     1       9.004  -0.026  -1.902  1.00  0.00     0.004 A 
ATOM     37  C   UNL     1       7.510   1.869  -2.067  1.00  0.00     0.004 A 
ATOM     38  C   UNL     1       8.804   1.353  -1.984  1.00  0.00     0.000 A 
ENDBRANCH  32  33
ENDBRANCH  31  32
ENDBRANCH   7  26
TORSDOF 6
