REMARK SMILES CNC(=O)c1cccc2cc(Oc3ccnc4cc(OCC5(N)CC5)c(OC)cc34)ccc12
REMARK SMILES IDX 13 1 30 2 29 3 26 4 19 5 18 6 17 7 16 8 15 9 14 10 12 11
REMARK SMILES IDX 11 12 5 13 33 14 6 15 32 16 9 17 7 18 31 19 10 20 8 21 3 22
REMARK SMILES IDX 1 23 2 24 4 26 27 27 28 28 20 29 21 30 22 31 24 32 25 33
REMARK SMILES IDX 23 34
REMARK H PARENT 2 25 23 35 23 36
REMARK Flexibility Score: inf
ROOT
ATOM      1  C   UNL     1       0.119   1.558  -0.833  1.00  0.00     0.138 A 
ATOM      2  C   UNL     1      -1.148   1.005  -0.573  1.00  0.00     0.047 A 
ATOM      3  C   UNL     1      -1.590   0.637   0.724  1.00  0.00     0.064 A 
ATOM      4  C   UNL     1      -2.846   0.065   0.919  1.00  0.00     0.161 A 
ATOM      5  C   UNL     1      -3.662  -0.123  -0.198  1.00  0.00     0.163 A 
ATOM      6  C   UNL     1      -3.229   0.227  -1.480  1.00  0.00     0.079 A 
ATOM      7  C   UNL     1      -1.989   0.806  -1.686  1.00  0.00     0.078 A 
ATOM      8  N   UNL     1      -1.635   1.154  -2.936  1.00  0.00    -0.256 NA
ATOM      9  C   UNL     1      -0.427   1.727  -3.128  1.00  0.00     0.115 A 
ATOM     10  C   UNL     1       0.480   1.951  -2.119  1.00  0.00     0.068 A 
ENDROOT
BRANCH   1  11
ATOM     11  O   UNL     1       1.000   1.742   0.214  1.00  0.00    -0.457 OA
BRANCH  11  12
ATOM     12  C   UNL     1       2.208   1.087   0.119  1.00  0.00     0.128 A 
ATOM     13  C   UNL     1       5.992  -0.811  -0.138  1.00  0.00     0.047 A 
ATOM     14  C   UNL     1       4.747  -0.143  -0.021  1.00  0.00    -0.005 A 
ATOM     15  C   UNL     1       6.077  -2.120  -0.633  1.00  0.00     0.014 A 
ATOM     16  C   UNL     1       4.596   1.197   0.406  1.00  0.00     0.013 A 
ATOM     17  C   UNL     1       3.579  -0.861  -0.379  1.00  0.00    -0.014 A 
ATOM     18  C   UNL     1       4.921  -2.806  -0.979  1.00  0.00     0.001 A 
ATOM     19  C   UNL     1       3.341   1.801   0.485  1.00  0.00     0.048 A 
ATOM     20  C   UNL     1       2.322  -0.244  -0.287  1.00  0.00     0.055 A 
ATOM     21  C   UNL     1       3.682  -2.184  -0.842  1.00  0.00     0.009 A 
BRANCH  13  22
ATOM     22  C   UNL     1       7.272  -0.180   0.256  1.00  0.00     0.251 C 
ATOM     23  C   UNL     1       8.587   0.693   2.133  1.00  0.00     0.143 C 
ATOM     24  N   UNL     1       7.352   0.194   1.580  1.00  0.00    -0.355 N 
ATOM     25  H   UNL     1       6.622  -0.105   2.212  1.00  0.00     0.163 HD
ATOM     26  O   UNL     1       8.184  -0.070  -0.556  1.00  0.00    -0.269 OA
ENDBRANCH  13  22
ENDBRANCH  11  12
ENDBRANCH   1  11
BRANCH   4  27
ATOM     27  O   UNL     1      -3.364  -0.316   2.127  1.00  0.00    -0.493 OA
ATOM     28  C   UNL     1      -2.453  -0.407   3.218  1.00  0.00     0.278 C 
ENDBRANCH   4  27
BRANCH   5  29
ATOM     29  O   UNL     1      -4.884  -0.730  -0.076  1.00  0.00    -0.488 OA
BRANCH  29  30
ATOM     30  C   UNL     1      -5.916   0.249   0.097  1.00  0.00     0.251 C 
BRANCH  30  31
ATOM     31  C   UNL     1      -7.284  -0.309  -0.322  1.00  0.00     0.050 C 
ATOM     32  C   UNL     1      -7.664  -1.706   0.119  1.00  0.00     0.028 C 
ATOM     33  C   UNL     1      -7.356  -1.439  -1.328  1.00  0.00     0.028 C 
BRANCH  31  34
ATOM     34  N   UNL     1      -8.390   0.676  -0.376  1.00  0.00    -0.322 NA
ATOM     35  H   UNL     1      -8.534   1.095   0.545  1.00  0.00     0.119 HD
ATOM     36  H   UNL     1      -8.154   1.439  -1.014  1.00  0.00     0.119 HD
ENDBRANCH  31  34
ENDBRANCH  30  31
ENDBRANCH  29  30
ENDBRANCH   5  29
TORSDOF 8
