REMARK SMILES CCOC(=O)Nc1ccc2c(c1)N(C(=O)CCN1CCOCC1)c1ccccc1S2
REMARK SMILES IDX 7 1 8 2 9 3 10 4 11 5 12 6 13 7 24 8 25 9 26 10 27 11 28 12
REMARK SMILES IDX 29 13 30 14 6 15 4 16 5 17 3 19 2 20 1 21 14 22 15 23 16 24
REMARK SMILES IDX 17 25 18 26 19 27 23 28 20 29 22 30 21 31
REMARK H PARENT 6 18
REMARK Flexibility Score: inf
ROOT
ATOM      1  C   UNL     1       3.309   0.468  -0.341  1.00  0.00     0.046 A 
ATOM      2  C   UNL     1       3.769   1.636   0.250  1.00  0.00     0.027 A 
ATOM      3  C   UNL     1       2.868   2.653   0.568  1.00  0.00     0.020 A 
ATOM      4  C   UNL     1       1.492   2.518   0.314  1.00  0.00     0.037 A 
ATOM      5  C   UNL     1       0.997   1.339  -0.253  1.00  0.00     0.065 A 
ATOM      6  C   UNL     1       1.935   0.333  -0.587  1.00  0.00     0.054 A 
ATOM      7  N   UNL     1      -0.400   1.115  -0.524  1.00  0.00    -0.279 N 
ATOM      8  C   UNL     1      -1.312   2.225  -0.608  1.00  0.00     0.063 A 
ATOM      9  C   UNL     1      -2.584   2.041  -1.193  1.00  0.00     0.028 A 
ATOM     10  C   UNL     1      -3.517   3.077  -1.284  1.00  0.00     0.002 A 
ATOM     11  C   UNL     1      -3.208   4.331  -0.783  1.00  0.00     0.001 A 
ATOM     12  C   UNL     1      -1.968   4.538  -0.187  1.00  0.00     0.017 A 
ATOM     13  C   UNL     1      -1.022   3.498  -0.093  1.00  0.00     0.036 A 
ATOM     14  S   UNL     1       0.470   3.883   0.780  1.00  0.00    -0.086 SA
ENDROOT
BRANCH   1  15
ATOM     15  N   UNL     1       4.139  -0.600  -0.721  1.00  0.00    -0.291 N 
ATOM     16  C   UNL     1       5.491  -0.725  -0.570  1.00  0.00     0.411 C 
ATOM     17  O   UNL     1       6.266   0.062  -0.048  1.00  0.00    -0.224 OA
ATOM     18  H   UNL     1       3.718  -1.396  -1.179  1.00  0.00     0.173 HD
BRANCH  16  19
ATOM     19  O   UNL     1       5.857  -1.921  -1.109  1.00  0.00    -0.450 OA
BRANCH  19  20
ATOM     20  C   UNL     1       7.257  -2.242  -1.043  1.00  0.00     0.231 C 
ATOM     21  C   UNL     1       7.529  -3.070   0.197  1.00  0.00     0.049 C 
ENDBRANCH  19  20
ENDBRANCH  16  19
ENDBRANCH   1  15
BRANCH   7  22
ATOM     22  C   UNL     1      -0.824  -0.160  -0.909  1.00  0.00     0.232 C 
ATOM     23  O   UNL     1      -1.033  -0.501  -2.073  1.00  0.00    -0.274 OA
BRANCH  22  24
ATOM     24  C   UNL     1      -0.946  -1.149   0.245  1.00  0.00     0.116 C 
BRANCH  24  25
ATOM     25  C   UNL     1      -2.080  -0.801   1.211  1.00  0.00     0.094 C 
BRANCH  25  26
ATOM     26  N   UNL     1      -3.420  -0.811   0.605  1.00  0.00    -0.298 NA
ATOM     27  C   UNL     1      -4.459  -0.332   1.544  1.00  0.00     0.113 C 
ATOM     28  C   UNL     1      -3.785  -2.136   0.053  1.00  0.00     0.113 C 
ATOM     29  C   UNL     1      -5.253  -1.468   2.210  1.00  0.00     0.175 C 
ATOM     30  C   UNL     1      -5.305  -2.327  -0.026  1.00  0.00     0.175 C 
ATOM     31  O   UNL     1      -5.914  -2.333   1.275  1.00  0.00    -0.379 OA
ENDBRANCH  25  26
ENDBRANCH  24  25
ENDBRANCH  22  24
ENDBRANCH   7  22
TORSDOF 7
