REMARK SMILES O=C1NCC2(CCN(CCc3ccccc3)CC2)O1
REMARK SMILES IDX 9 1 8 2 1 3 2 4 3 5 19 6 4 7 5 9 6 10 18 11 7 12 17 13 10 14
REMARK SMILES IDX 11 15 12 16 16 17 13 18 15 19 14 20
REMARK H PARENT 3 8
REMARK Flexibility Score: inf
ROOT
ATOM      1  C   UNL     1      -0.796  -0.473  -0.528  1.00  0.00     0.089 C 
ENDROOT
BRANCH   1   2
ATOM      2  N   UNL     1       0.591  -0.085  -0.222  1.00  0.00    -0.303 NA
ATOM      3  O   UNL     1       6.498   0.485   1.319  1.00  0.00    -0.225 OA
ATOM      4  C   UNL     1       5.367   0.254   0.931  1.00  0.00     0.407 C 
ATOM      5  N   UNL     1       4.880  -0.983   0.619  1.00  0.00    -0.317 N 
ATOM      6  O   UNL     1       4.408   1.200   0.709  1.00  0.00    -0.441 OA
ATOM      7  C   UNL     1       3.650  -0.855  -0.088  1.00  0.00     0.168 C 
ATOM      8  H   UNL     1       5.544  -1.738   0.503  1.00  0.00     0.167 HD
ATOM      9  C   UNL     1       3.179   0.537   0.335  1.00  0.00     0.134 C 
ATOM     10  C   UNL     1       2.518   1.322  -0.808  1.00  0.00     0.066 C 
ATOM     11  C   UNL     1       2.247   0.501   1.551  1.00  0.00     0.066 C 
ATOM     12  C   UNL     1       0.992   1.186  -0.818  1.00  0.00     0.088 C 
ATOM     13  C   UNL     1       0.898  -0.146   1.213  1.00  0.00     0.088 C 
ENDBRANCH   1   2
BRANCH   1  14
ATOM     14  C   UNL     1      -1.901   0.522  -0.127  1.00  0.00     0.051 C 
BRANCH  14  15
ATOM     15  C   UNL     1      -3.273  -0.005  -0.480  1.00  0.00    -0.047 A 
ATOM     16  C   UNL     1      -3.829   0.248  -1.741  1.00  0.00     0.004 A 
ATOM     17  C   UNL     1      -3.995  -0.777   0.440  1.00  0.00     0.004 A 
ATOM     18  C   UNL     1      -5.088  -0.255  -2.072  1.00  0.00     0.000 A 
ATOM     19  C   UNL     1      -5.254  -1.279   0.107  1.00  0.00     0.000 A 
ATOM     20  C   UNL     1      -5.800  -1.017  -1.148  1.00  0.00     0.000 A 
ENDBRANCH  14  15
ENDBRANCH   1  14
TORSDOF 3
