REMARK SMILES CCOc1ccc2nc(S(N)(=O)=O)sc2c1
REMARK SMILES IDX 4 1 5 2 6 3 7 4 8 5 9 6 14 7 15 8 16 9 3 10 2 11 1 12 10 13
REMARK SMILES IDX 12 14 13 15 11 16
REMARK H PARENT 11 17 11 18
REMARK Flexibility Score: inf
ROOT
ATOM      1  C   UNL     1      -1.641  -0.472  -0.005  1.00  0.00     0.120 A 
ATOM      2  C   UNL     1      -1.328   0.876   0.144  1.00  0.00     0.049 A 
ATOM      3  C   UNL     1       0.007   1.292   0.255  1.00  0.00     0.034 A 
ATOM      4  C   UNL     1       1.048   0.345   0.219  1.00  0.00     0.083 A 
ATOM      5  N   UNL     1       2.402   0.621   0.318  1.00  0.00    -0.224 NA
ATOM      6  C   UNL     1       3.067  -0.517   0.246  1.00  0.00     0.225 A 
ATOM      7  S   UNL     1       2.161  -1.945   0.064  1.00  0.00    -0.101 S 
ATOM      8  C   UNL     1       0.715  -1.005   0.074  1.00  0.00     0.059 A 
ATOM      9  C   UNL     1      -0.618  -1.429  -0.037  1.00  0.00     0.067 A 
ENDROOT
BRANCH   1  10
ATOM     10  O   UNL     1      -2.897  -1.002  -0.118  1.00  0.00    -0.494 OA
BRANCH  10  11
ATOM     11  C   UNL     1      -4.015  -0.123  -0.231  1.00  0.00     0.226 C 
ATOM     12  C   UNL     1      -4.564   0.230   1.140  1.00  0.00     0.049 C 
ENDBRANCH  10  11
ENDBRANCH   1  10
BRANCH   6  13
ATOM     13  S   UNL     1       4.836  -0.656   0.331  1.00  0.00     0.265 S 
ATOM     14  O   UNL     1       5.130  -1.326   1.576  1.00  0.00    -0.205 OA
ATOM     15  O   UNL     1       5.264  -1.151  -0.958  1.00  0.00    -0.205 OA
BRANCH  13  16
ATOM     16  N   UNL     1       5.435   0.925   0.447  1.00  0.00    -0.223 NA
ATOM     17  H   UNL     1       5.610   1.290  -0.490  1.00  0.00     0.137 HD
ATOM     18  H   UNL     1       4.790   1.511   0.981  1.00  0.00     0.137 HD
ENDBRANCH  13  16
ENDBRANCH   6  13
TORSDOF 4
