REMARK SMILES COc1ncc(-c2ccc3nccc(-c4ccnnc4)c3c2)cc1NS(=O)(=O)c1ccc(F)cc1F
REMARK SMILES IDX 3 1 24 2 23 3 6 4 5 5 4 6 2 7 1 8 25 9 26 11 27 12 28 13
REMARK SMILES IDX 29 14 35 15 30 16 36 17 34 18 31 19 32 20 33 21 7 22 22 23
REMARK SMILES IDX 8 24 21 25 9 26 14 27 10 28 13 29 11 30 12 31 15 32 20 33
REMARK SMILES IDX 16 34 19 35 17 36 18 37
REMARK H PARENT 25 10
REMARK Flexibility Score: inf
ROOT
ATOM      1  C   UNL     1      -2.065  -3.296   1.328  1.00  0.00     0.238 A 
ATOM      2  C   UNL     1      -2.112  -1.986   0.846  1.00  0.00     0.112 A 
ATOM      3  C   UNL     1      -0.970  -1.476   0.232  1.00  0.00     0.042 A 
ATOM      4  C   UNL     1       0.189  -2.261   0.109  1.00  0.00     0.002 A 
ATOM      5  C   UNL     1       0.112  -3.555   0.633  1.00  0.00     0.124 A 
ATOM      6  N   UNL     1      -0.977  -4.091   1.237  1.00  0.00    -0.220 NA
ENDROOT
BRANCH   1   7
ATOM      7  O   UNL     1      -3.208  -3.765   1.957  1.00  0.00    -0.480 OA
ATOM      8  C   UNL     1      -3.115  -5.138   2.325  1.00  0.00     0.280 C 
ENDBRANCH   1   7
BRANCH   2   9
ATOM      9  N   UNL     1      -3.298  -1.194   1.024  1.00  0.00    -0.274 N 
ATOM     10  H   UNL     1      -3.989  -1.615   1.655  1.00  0.00     0.180 HD
BRANCH   9  11
ATOM     11  S   UNL     1      -4.079  -0.598  -0.355  1.00  0.00     0.264 S 
ATOM     12  O   UNL     1      -5.447  -0.347   0.043  1.00  0.00    -0.201 OA
ATOM     13  O   UNL     1      -3.747  -1.463  -1.465  1.00  0.00    -0.201 OA
BRANCH  11  14
ATOM     14  C   UNL     1      -3.335   0.985  -0.594  1.00  0.00     0.123 A 
ATOM     15  C   UNL     1      -3.163   1.464  -1.888  1.00  0.00     0.146 A 
ATOM     16  C   UNL     1      -2.888   1.736   0.501  1.00  0.00     0.028 A 
ATOM     17  F   UNL     1      -3.607   0.783  -2.951  1.00  0.00    -0.205 F 
ATOM     18  C   UNL     1      -2.532   2.685  -2.109  1.00  0.00     0.080 A 
ATOM     19  C   UNL     1      -2.251   2.959   0.280  1.00  0.00     0.041 A 
ATOM     20  C   UNL     1      -2.078   3.419  -1.023  1.00  0.00     0.126 A 
ATOM     21  F   UNL     1      -1.458   4.588  -1.234  1.00  0.00    -0.207 F 
ENDBRANCH  11  14
ENDBRANCH   9  11
ENDBRANCH   2   9
BRANCH   4  22
ATOM     22  C   UNL     1       1.416  -1.734  -0.519  1.00  0.00    -0.016 A 
ATOM     23  C   UNL     1       1.844  -0.414  -0.289  1.00  0.00     0.019 A 
ATOM     24  C   UNL     1       2.203  -2.517  -1.368  1.00  0.00     0.011 A 
ATOM     25  C   UNL     1       3.020   0.128  -0.875  1.00  0.00     0.009 A 
ATOM     26  C   UNL     1       3.367  -1.998  -1.949  1.00  0.00     0.029 A 
ATOM     27  C   UNL     1       3.471   1.462  -0.673  1.00  0.00    -0.006 A 
ATOM     28  C   UNL     1       3.790  -0.698  -1.719  1.00  0.00     0.071 A 
ATOM     29  C   UNL     1       4.646   1.880  -1.308  1.00  0.00     0.029 A 
ATOM     30  N   UNL     1       4.916  -0.284  -2.319  1.00  0.00    -0.256 NA
ATOM     31  C   UNL     1       5.324   0.982  -2.107  1.00  0.00     0.112 A 
BRANCH  27  32
ATOM     32  C   UNL     1       2.744   2.428   0.163  1.00  0.00     0.004 A 
ATOM     33  C   UNL     1       2.740   2.342   1.549  1.00  0.00     0.144 A 
ATOM     34  C   UNL     1       2.021   3.477  -0.401  1.00  0.00     0.032 A 
ATOM     35  N   UNL     1       2.059   3.198   2.343  1.00  0.00    -0.159 NA
ATOM     36  C   UNL     1       1.347   4.344   0.438  1.00  0.00     0.136 A 
ATOM     37  N   UNL     1       1.352   4.210   1.778  1.00  0.00    -0.159 NA
ENDBRANCH  27  32
ENDBRANCH   4  22
TORSDOF 6
