REMARK SMILES CC(=O)Oc1ccc(C2(c3ccc(OC(C)=O)cc3)C(=O)N(C(C)=O)c3ccccc32)cc1
REMARK SMILES IDX 9 1 20 2 21 3 22 4 26 5 27 6 28 7 29 8 30 9 31 10 8 11 5 12
REMARK SMILES IDX 6 13 33 14 7 15 32 16 4 17 2 18 1 19 3 20 10 21 11 22 19 23
REMARK SMILES IDX 12 24 18 25 13 26 14 27 15 28 16 29 17 30 23 31 24 32 25 33
REMARK H PARENT
REMARK Flexibility Score: inf
ROOT
ATOM      1  C   UNL     1      -0.219  -0.485   0.234  1.00  0.00     0.127 C 
ATOM      2  C   UNL     1      -0.236  -1.425   1.505  1.00  0.00     0.253 C 
ATOM      3  O   UNL     1       0.015  -1.072   2.653  1.00  0.00    -0.272 OA
ATOM      4  N   UNL     1      -0.571  -2.722   1.083  1.00  0.00    -0.249 N 
ATOM      5  C   UNL     1      -0.799  -2.755  -0.301  1.00  0.00     0.057 A 
ATOM      6  C   UNL     1      -1.215  -3.821  -1.086  1.00  0.00     0.027 A 
ATOM      7  C   UNL     1      -1.442  -3.600  -2.447  1.00  0.00     0.002 A 
ATOM      8  C   UNL     1      -1.272  -2.325  -3.001  1.00  0.00     0.001 A 
ATOM      9  C   UNL     1      -0.876  -1.253  -2.202  1.00  0.00     0.008 A 
ATOM     10  C   UNL     1      -0.636  -1.481  -0.849  1.00  0.00     0.001 A 
ENDROOT
BRANCH   1  11
ATOM     11  C   UNL     1      -1.279   0.644   0.329  1.00  0.00    -0.023 A 
ATOM     12  C   UNL     1      -3.237   2.658   0.388  1.00  0.00     0.130 A 
ATOM     13  C   UNL     1      -3.370   1.547   1.213  1.00  0.00     0.047 A 
ATOM     14  C   UNL     1      -2.138   2.799  -0.452  1.00  0.00     0.047 A 
ATOM     15  C   UNL     1      -2.402   0.540   1.174  1.00  0.00     0.009 A 
ATOM     16  C   UNL     1      -1.173   1.791  -0.489  1.00  0.00     0.009 A 
BRANCH  12  17
ATOM     17  O   UNL     1      -4.197   3.668   0.483  1.00  0.00    -0.427 OA
BRANCH  17  18
ATOM     18  C   UNL     1      -5.018   3.780  -0.634  1.00  0.00     0.308 C 
ATOM     19  C   UNL     1      -5.998   4.891  -0.397  1.00  0.00     0.139 C 
ATOM     20  O   UNL     1      -4.977   3.107  -1.654  1.00  0.00    -0.252 OA
ENDBRANCH  17  18
ENDBRANCH  12  17
ENDBRANCH   1  11
BRANCH   1  21
ATOM     21  C   UNL     1       1.234   0.048   0.097  1.00  0.00    -0.023 A 
ATOM     22  C   UNL     1       2.125  -0.391  -0.902  1.00  0.00     0.009 A 
ATOM     23  C   UNL     1       1.714   0.990   1.034  1.00  0.00     0.009 A 
ATOM     24  C   UNL     1       3.432   0.103  -0.973  1.00  0.00     0.047 A 
ATOM     25  C   UNL     1       3.019   1.482   0.970  1.00  0.00     0.047 A 
ATOM     26  C   UNL     1       3.872   1.021  -0.025  1.00  0.00     0.130 A 
BRANCH  26  27
ATOM     27  O   UNL     1       5.157   1.574  -0.079  1.00  0.00    -0.427 OA
BRANCH  27  28
ATOM     28  C   UNL     1       6.218   0.677  -0.003  1.00  0.00     0.308 C 
ATOM     29  C   UNL     1       7.503   1.449  -0.061  1.00  0.00     0.139 C 
ATOM     30  O   UNL     1       6.151  -0.541   0.092  1.00  0.00    -0.252 OA
ENDBRANCH  27  28
ENDBRANCH  26  27
ENDBRANCH   1  21
BRANCH   4  31
ATOM     31  C   UNL     1      -0.522  -3.796   1.942  1.00  0.00     0.230 C 
ATOM     32  C   UNL     1       0.272  -4.995   1.482  1.00  0.00     0.115 C 
ATOM     33  O   UNL     1      -1.118  -3.831   3.019  1.00  0.00    -0.274 OA
ENDBRANCH   4  31
TORSDOF 7
