REMARK SMILES COc1ccc(C(=O)NCc2cccnc2)cc1C(=O)NCc1cccnc1
REMARK SMILES IDX 3 1 4 2 5 3 6 4 17 5 18 6 2 7 1 8 19 9 20 10 21 11 22 13
REMARK SMILES IDX 23 14 24 15 28 16 25 17 27 18 26 19 7 20 8 21 9 22 10 24
REMARK SMILES IDX 11 25 12 26 16 27 13 28 15 29 14 30
REMARK H PARENT 21 12 9 23
REMARK Flexibility Score: inf
ROOT
ATOM      1  C   UNL     1       0.963   0.290   1.687  1.00  0.00     0.131 A 
ATOM      2  C   UNL     1       0.068  -0.360   2.549  1.00  0.00     0.048 A 
ATOM      3  C   UNL     1      -1.312  -0.308   2.327  1.00  0.00     0.018 A 
ATOM      4  C   UNL     1      -1.819   0.396   1.233  1.00  0.00     0.040 A 
ATOM      5  C   UNL     1      -0.939   1.064   0.377  1.00  0.00     0.031 A 
ATOM      6  C   UNL     1       0.452   1.011   0.584  1.00  0.00     0.082 A 
ENDROOT
BRANCH   1   7
ATOM      7  O   UNL     1       2.323   0.275   1.867  1.00  0.00    -0.496 OA
ATOM      8  C   UNL     1       2.850  -0.445   2.977  1.00  0.00     0.278 C 
ENDBRANCH   1   7
BRANCH   6   9
ATOM      9  C   UNL     1       1.294   1.746  -0.420  1.00  0.00     0.255 C 
ATOM     10  O   UNL     1       0.771   2.492  -1.243  1.00  0.00    -0.269 OA
ATOM     11  N   UNL     1       2.652   1.538  -0.386  1.00  0.00    -0.348 N 
ATOM     12  H   UNL     1       3.032   1.026   0.404  1.00  0.00     0.164 HD
BRANCH  11  13
ATOM     13  C   UNL     1       3.552   2.301  -1.214  1.00  0.00     0.153 C 
BRANCH  13  14
ATOM     14  C   UNL     1       4.924   1.700  -1.206  1.00  0.00    -0.010 A 
ATOM     15  C   UNL     1       5.226   0.567  -1.966  1.00  0.00     0.009 A 
ATOM     16  C   UNL     1       5.936   2.222  -0.408  1.00  0.00     0.116 A 
ATOM     17  C   UNL     1       6.504   0.019  -1.913  1.00  0.00     0.020 A 
ATOM     18  N   UNL     1       7.184   1.708  -0.331  1.00  0.00    -0.264 NA
ATOM     19  C   UNL     1       7.440   0.621  -1.089  1.00  0.00     0.111 A 
ENDBRANCH  13  14
ENDBRANCH  11  13
ENDBRANCH   6   9
BRANCH   4  20
ATOM     20  C   UNL     1      -3.280   0.477   0.961  1.00  0.00     0.251 C 
ATOM     21  O   UNL     1      -3.748   1.464   0.408  1.00  0.00    -0.269 OA
ATOM     22  N   UNL     1      -4.027  -0.621   1.332  1.00  0.00    -0.348 N 
ATOM     23  H   UNL     1      -3.549  -1.480   1.563  1.00  0.00     0.164 HD
BRANCH  22  24
ATOM     24  C   UNL     1      -5.430  -0.723   0.991  1.00  0.00     0.153 C 
BRANCH  24  25
ATOM     25  C   UNL     1      -5.626  -1.534  -0.256  1.00  0.00    -0.010 A 
ATOM     26  C   UNL     1      -5.398  -0.989  -1.523  1.00  0.00     0.009 A 
ATOM     27  C   UNL     1      -6.014  -2.869  -0.196  1.00  0.00     0.116 A 
ATOM     28  C   UNL     1      -5.574  -1.776  -2.657  1.00  0.00     0.020 A 
ATOM     29  N   UNL     1      -6.188  -3.660  -1.279  1.00  0.00    -0.264 NA
ATOM     30  C   UNL     1      -5.966  -3.093  -2.485  1.00  0.00     0.111 A 
ENDBRANCH  24  25
ENDBRANCH  22  24
ENDBRANCH   4  20
TORSDOF 7
