REMARK SMILES Nc1nc2[nH]cnc2c(=S)[nH]1
REMARK SMILES IDX 1 1 2 2 3 3 4 4 5 5 6 6 7 7 8 8 9 9 10 10 11 11
REMARK H PARENT 1 12 1 13 5 14 11 15
REMARK Flexibility Score: inf
ROOT
ATOM      1  N   UNL     1      -2.610  -1.288   0.037  1.00  0.00    -0.369 N 
ATOM      2  C   UNL     1      -1.430  -0.621  -0.018  1.00  0.00     0.200 C 
ATOM      3  N   UNL     1      -0.308  -1.262   0.177  1.00  0.00    -0.195 NA
ATOM      4  C   UNL     1       0.782  -0.464   0.096  1.00  0.00     0.164 A 
ATOM      5  N   UNL     1       2.074  -0.862   0.254  1.00  0.00    -0.329 N 
ATOM      6  C   UNL     1       2.860   0.250   0.095  1.00  0.00     0.199 A 
ATOM      7  N   UNL     1       2.146   1.330  -0.155  1.00  0.00    -0.232 NA
ATOM      8  C   UNL     1       0.848   0.887  -0.158  1.00  0.00     0.142 A 
ATOM      9  C   UNL     1      -0.403   1.563  -0.375  1.00  0.00     0.135 C 
ATOM     10  S   UNL     1      -0.487   3.182  -0.711  1.00  0.00    -0.058 S 
ATOM     11  N   UNL     1      -1.510   0.736  -0.278  1.00  0.00    -0.315 N 
ATOM     12  H   UNL     1      -3.384  -0.791   0.460  1.00  0.00     0.159 HD
ATOM     13  H   UNL     1      -2.494  -2.219   0.427  1.00  0.00     0.159 HD
ATOM     14  H   UNL     1       2.383  -1.803   0.448  1.00  0.00     0.169 HD
ATOM     15  H   UNL     1      -2.407   1.152  -0.469  1.00  0.00     0.171 HD
ENDROOT
TORSDOF 0
