REMARK SMILES CN1C(N)=N[C@](C)(c2cc(NC(=O)c3ccc(F)cn3)ccc2F)CS1(=O)=O
REMARK SMILES IDX 8 1 9 2 10 3 21 4 22 5 23 6 24 7 6 8 1 9 2 10 3 11 26 12
REMARK SMILES IDX 4 13 5 14 25 15 27 16 28 17 7 20 11 21 12 22 13 24 14 25
REMARK SMILES IDX 15 26 20 27 16 28 19 29 17 30 18 31
REMARK H PARENT 4 18 4 19 11 23
REMARK Flexibility Score: inf
ROOT
ATOM      1  C   UNL     1      -0.705   0.892   0.144  1.00  0.00     0.018 A 
ATOM      2  C   UNL     1       0.552   0.251   0.171  1.00  0.00     0.035 A 
ATOM      3  C   UNL     1       1.724   0.941   0.511  1.00  0.00     0.042 A 
ATOM      4  C   UNL     1       1.649   2.301   0.824  1.00  0.00     0.029 A 
ATOM      5  C   UNL     1       0.425   2.963   0.786  1.00  0.00     0.042 A 
ATOM      6  C   UNL     1      -0.729   2.265   0.445  1.00  0.00     0.129 A 
ATOM      7  F   UNL     1      -1.878   2.955   0.381  1.00  0.00    -0.207 F 
ENDROOT
BRANCH   1   8
ATOM      8  C   UNL     1      -2.013   0.161  -0.240  1.00  0.00     0.105 C 
ATOM      9  C   UNL     1      -6.289  -0.111  -1.021  1.00  0.00     0.167 C 
ATOM     10  N   UNL     1      -4.861   0.204  -0.806  1.00  0.00    -0.243 N 
ATOM     11  C   UNL     1      -4.301   0.519   0.435  1.00  0.00     0.205 C 
ATOM     12  S   UNL     1      -3.917   0.005  -2.179  1.00  0.00     0.239 S 
ATOM     13  N   UNL     1      -5.197   0.853   1.393  1.00  0.00    -0.369 N 
ATOM     14  N   UNL     1      -3.056   0.538   0.719  1.00  0.00    -0.240 NA
ATOM     15  C   UNL     1      -2.347   0.610  -1.657  1.00  0.00     0.195 C 
ATOM     16  O   UNL     1      -4.430   0.914  -3.186  1.00  0.00    -0.206 OA
ATOM     17  O   UNL     1      -3.824  -1.410  -2.470  1.00  0.00    -0.206 OA
ATOM     18  H   UNL     1      -5.944   1.447   1.061  1.00  0.00     0.159 HD
ATOM     19  H   UNL     1      -4.716   1.269   2.184  1.00  0.00     0.159 HD
ATOM     20  C   UNL     1      -1.865  -1.374  -0.121  1.00  0.00     0.044 C 
ENDBRANCH   1   8
BRANCH   3  21
ATOM     21  N   UNL     1       2.996   0.346   0.557  1.00  0.00    -0.321 N 
ATOM     22  C   UNL     1       3.346  -0.962   0.278  1.00  0.00     0.274 C 
ATOM     23  H   UNL     1       3.784   0.932   0.827  1.00  0.00     0.170 HD
ATOM     24  O   UNL     1       2.606  -1.870  -0.078  1.00  0.00    -0.267 OA
BRANCH  22  25
ATOM     25  C   UNL     1       4.816  -1.218   0.448  1.00  0.00     0.128 A 
ATOM     26  C   UNL     1       5.337  -2.488   0.211  1.00  0.00     0.037 A 
ATOM     27  N   UNL     1       5.570  -0.146   0.838  1.00  0.00    -0.248 NA
ATOM     28  C   UNL     1       6.707  -2.682   0.380  1.00  0.00     0.043 A 
ATOM     29  C   UNL     1       6.897  -0.378   0.992  1.00  0.00     0.151 A 
ATOM     30  C   UNL     1       7.493  -1.610   0.776  1.00  0.00     0.141 A 
ATOM     31  F   UNL     1       8.811  -1.766   0.947  1.00  0.00    -0.205 F 
ENDBRANCH  22  25
ENDBRANCH   3  21
TORSDOF 3
