REMARK SMILES CC(=O)N(c1onc(C)c1C)S(=O)(=O)c1ccc(N)cc1
REMARK SMILES IDX 12 1 13 2 14 3 4 4 2 5 1 6 3 7 5 8 6 9 10 10 7 11 8 12 11 13
REMARK SMILES IDX 9 14 15 15 16 16 21 17 17 18 20 19 18 20 19 21
REMARK H PARENT 19 22 19 23
REMARK Flexibility Score: inf
ROOT
ATOM      1  S   UNL     1       0.272  -1.224   1.315  1.00  0.00     0.273 S 
ATOM      2  O   UNL     1      -0.386  -0.450   2.350  1.00  0.00    -0.200 OA
ATOM      3  O   UNL     1       0.800  -2.534   1.640  1.00  0.00    -0.200 OA
ENDROOT
BRANCH   1   4
ATOM      4  N   UNL     1      -0.748  -1.354  -0.018  1.00  0.00    -0.168 N 
BRANCH   4   5
ATOM      5  C   UNL     1      -0.581  -2.211  -1.138  1.00  0.00     0.240 C 
ATOM      6  C   UNL     1       0.142  -3.514  -0.934  1.00  0.00     0.116 C 
ATOM      7  O   UNL     1      -1.062  -1.958  -2.242  1.00  0.00    -0.274 OA
ENDBRANCH   4   5
BRANCH   4   8
ATOM      8  C   UNL     1      -1.438  -0.105  -0.332  1.00  0.00     0.251 A 
ATOM      9  O   UNL     1      -0.943   0.859  -1.153  1.00  0.00    -0.337 OA
ATOM     10  C   UNL     1      -2.668   0.290   0.152  1.00  0.00     0.038 A 
ATOM     11  N   UNL     1      -1.821   1.923  -1.203  1.00  0.00    -0.082 NA
ATOM     12  C   UNL     1      -2.859   1.573  -0.434  1.00  0.00     0.086 A 
ATOM     13  C   UNL     1      -3.583  -0.431   1.065  1.00  0.00     0.052 C 
ATOM     14  C   UNL     1      -4.010   2.492  -0.274  1.00  0.00     0.071 C 
ENDBRANCH   4   8
ENDBRANCH   1   4
BRANCH   1  15
ATOM     15  C   UNL     1       1.634  -0.250   0.705  1.00  0.00     0.088 A 
ATOM     16  C   UNL     1       2.782  -0.880   0.221  1.00  0.00     0.024 A 
ATOM     17  C   UNL     1       1.584   1.143   0.799  1.00  0.00     0.024 A 
ATOM     18  C   UNL     1       3.855  -0.106  -0.231  1.00  0.00     0.027 A 
ATOM     19  C   UNL     1       2.663   1.904   0.341  1.00  0.00     0.027 A 
ATOM     20  C   UNL     1       3.782   1.291  -0.229  1.00  0.00     0.031 A 
BRANCH  20  21
ATOM     21  N   UNL     1       4.901   2.054  -0.578  1.00  0.00    -0.399 N 
ATOM     22  H   UNL     1       4.679   3.009  -0.844  1.00  0.00     0.156 HD
ATOM     23  H   UNL     1       5.517   1.604  -1.248  1.00  0.00     0.156 HD
ENDBRANCH  20  21
ENDBRANCH   1  15
TORSDOF 5
