REMARK SMILES COc1ccc(NC(=O)c2ccc(C(=N)N(C)C)cc2)c(C(=O)Nc2ccc(Cl)cn2)c1
REMARK SMILES IDX 3 1 4 2 5 3 6 4 21 5 32 6 2 7 1 8 22 9 23 10 24 11 25 13
REMARK SMILES IDX 26 14 31 15 27 16 30 17 28 18 29 19 7 20 8 21 9 23 10 24
REMARK SMILES IDX 11 25 20 26 12 27 19 28 13 29 14 30 15 31 16 32 17 34 18 35
REMARK H PARENT 24 12 7 22 15 33
REMARK Flexibility Score: inf
ROOT
ATOM      1  C   UNL     1      -3.806  -3.834   0.626  1.00  0.00     0.119 A 
ATOM      2  C   UNL     1      -2.570  -4.472   0.713  1.00  0.00     0.048 A 
ATOM      3  C   UNL     1      -1.377  -3.761   0.541  1.00  0.00     0.031 A 
ATOM      4  C   UNL     1      -1.395  -2.388   0.285  1.00  0.00     0.054 A 
ATOM      5  C   UNL     1      -2.648  -1.730   0.244  1.00  0.00     0.067 A 
ATOM      6  C   UNL     1      -3.845  -2.463   0.388  1.00  0.00     0.062 A 
ENDROOT
BRANCH   1   7
ATOM      7  O   UNL     1      -4.885  -4.655   0.791  1.00  0.00    -0.497 OA
ATOM      8  C   UNL     1      -6.176  -4.071   0.674  1.00  0.00     0.278 C 
ENDBRANCH   1   7
BRANCH   5   9
ATOM      9  C   UNL     1      -2.717  -0.246   0.046  1.00  0.00     0.259 C 
ATOM     10  O   UNL     1      -1.841   0.304  -0.614  1.00  0.00    -0.269 OA
ATOM     11  N   UNL     1      -3.751   0.390   0.694  1.00  0.00    -0.306 N 
ATOM     12  H   UNL     1      -4.323  -0.117   1.356  1.00  0.00     0.171 HD
BRANCH  11  13
ATOM     13  C   UNL     1      -4.086   1.744   0.664  1.00  0.00     0.132 A 
ATOM     14  C   UNL     1      -3.465   2.690  -0.142  1.00  0.00     0.049 A 
ATOM     15  N   UNL     1      -5.103   2.055   1.498  1.00  0.00    -0.238 NA
ATOM     16  C   UNL     1      -3.898   4.017  -0.085  1.00  0.00     0.026 A 
ATOM     17  C   UNL     1      -5.503   3.352   1.536  1.00  0.00     0.134 A 
ATOM     18  C   UNL     1      -4.935   4.356   0.771  1.00  0.00     0.059 A 
ATOM     19  Cl  UNL     1      -5.498   5.972   0.873  1.00  0.00    -0.083 Cl
ENDBRANCH  11  13
ENDBRANCH   5   9
BRANCH   4  20
ATOM     20  N   UNL     1      -0.211  -1.642   0.062  1.00  0.00    -0.321 N 
ATOM     21  C   UNL     1       1.098  -2.080   0.077  1.00  0.00     0.255 C 
ATOM     22  H   UNL     1      -0.378  -0.684  -0.249  1.00  0.00     0.170 HD
ATOM     23  O   UNL     1       1.485  -3.222   0.293  1.00  0.00    -0.269 OA
BRANCH  21  24
ATOM     24  C   UNL     1       2.122  -1.034  -0.220  1.00  0.00     0.040 A 
ATOM     25  C   UNL     1       3.314  -1.432  -0.846  1.00  0.00     0.014 A 
ATOM     26  C   UNL     1       1.939   0.312   0.134  1.00  0.00     0.014 A 
ATOM     27  C   UNL     1       4.306  -0.493  -1.134  1.00  0.00     0.013 A 
ATOM     28  C   UNL     1       2.933   1.253  -0.154  1.00  0.00     0.013 A 
ATOM     29  C   UNL     1       4.113   0.845  -0.783  1.00  0.00     0.016 A 
BRANCH  29  30
ATOM     30  C   UNL     1       5.169   1.852  -1.095  1.00  0.00     0.127 C 
ATOM     31  N   UNL     1       4.837   2.903  -1.785  1.00  0.00    -0.284 NA
ATOM     32  N   UNL     1       6.478   1.656  -0.673  1.00  0.00    -0.363 N 
ATOM     33  H   UNL     1       3.848   2.868  -2.049  1.00  0.00     0.189 HD
ATOM     34  C   UNL     1       7.483   2.640  -1.079  1.00  0.00     0.145 C 
ATOM     35  C   UNL     1       6.752   1.037   0.624  1.00  0.00     0.145 C 
ENDBRANCH  29  30
ENDBRANCH  21  24
ENDBRANCH   4  20
TORSDOF 6
