REMARK SMILES CN(C/C=C/C#CC(C)(C)C)Cc1cccc2ccccc12
REMARK SMILES IDX 3 1 2 2 1 3 12 4 13 5 14 6 22 7 15 8 17 9 21 10 16 11 18 12
REMARK SMILES IDX 20 13 19 14 4 15 5 16 6 17 7 18 8 19 9 20 10 21 11 22
REMARK H PARENT
REMARK Flexibility Score: inf
ROOT
ATOM      1  C   UNL     1       0.560  -0.881   0.202  1.00  0.00     0.112 C 
ENDROOT
BRANCH   1   2
ATOM      2  N   UNL     1       0.905  -1.578  -1.047  1.00  0.00    -0.298 NA
ATOM      3  C   UNL     1       0.121  -2.810  -1.198  1.00  0.00     0.106 C 
BRANCH   2   4
ATOM      4  C   UNL     1       2.344  -1.910  -1.089  1.00  0.00     0.120 C 
BRANCH   4   5
ATOM      5  C   UNL     1       3.243  -0.693  -1.241  1.00  0.00    -0.026 A 
ATOM      6  C   UNL     1       3.129   0.035  -2.443  1.00  0.00     0.006 A 
ATOM      7  C   UNL     1       4.176  -0.271  -0.248  1.00  0.00    -0.014 A 
ATOM      8  C   UNL     1       3.917   1.153  -2.684  1.00  0.00     0.001 A 
ATOM      9  C   UNL     1       4.975   0.874  -0.514  1.00  0.00    -0.018 A 
ATOM     10  C   UNL     1       4.364  -0.910   1.002  1.00  0.00     0.009 A 
ATOM     11  C   UNL     1       4.835   1.566  -1.725  1.00  0.00     0.009 A 
ATOM     12  C   UNL     1       5.908   1.323   0.436  1.00  0.00     0.009 A 
ATOM     13  C   UNL     1       5.296  -0.450   1.937  1.00  0.00     0.001 A 
ATOM     14  C   UNL     1       6.069   0.666   1.653  1.00  0.00     0.001 A 
ENDBRANCH   4   5
ENDBRANCH   2   4
ENDBRANCH   1   2
BRANCH   1  15
ATOM     15  C   UNL     1      -0.832  -0.319   0.167  1.00  0.00    -0.003 C 
ATOM     16  C   UNL     1      -1.769  -0.571   1.092  1.00  0.00     0.057 C 
BRANCH  16  17
ATOM     17  C   UNL     1      -3.067  -0.003   1.003  1.00  0.00    -0.075 C 
ATOM     18  C   UNL     1      -4.165   0.478   0.928  1.00  0.00    -0.093 C 
BRANCH  18  19
ATOM     19  C   UNL     1      -5.516   1.073   0.830  1.00  0.00     0.023 C 
ATOM     20  C   UNL     1      -6.432   0.438   1.885  1.00  0.00     0.025 C 
ATOM     21  C   UNL     1      -6.088   0.811  -0.571  1.00  0.00     0.025 C 
ATOM     22  C   UNL     1      -5.425   2.586   1.072  1.00  0.00     0.025 C 
ENDBRANCH  18  19
ENDBRANCH  16  17
ENDBRANCH   1  15
TORSDOF 6
