REMARK SMILES NCCNc1ccc(NCCN)c2c1C(=O)c1ccncc1C2=O
REMARK SMILES IDX 5 1 6 2 7 3 8 4 13 5 14 6 15 7 16 8 17 9 18 10 19 11 20 12
REMARK SMILES IDX 21 13 22 14 23 15 24 16 4 17 3 19 2 20 1 21 9 24 10 26 11 27
REMARK SMILES IDX 12 28
REMARK H PARENT 4 18 1 22 1 23 9 25 12 29 12 30
REMARK Flexibility Score: inf
ROOT
ATOM      1  C   UNL     1       1.571   0.484  -0.218  1.00  0.00     0.046 A 
ATOM      2  C   UNL     1       0.989   1.751  -0.326  1.00  0.00     0.028 A 
ATOM      3  C   UNL     1      -0.397   1.917  -0.374  1.00  0.00     0.028 A 
ATOM      4  C   UNL     1      -1.273   0.833  -0.253  1.00  0.00     0.046 A 
ATOM      5  C   UNL     1      -0.702  -0.458  -0.128  1.00  0.00     0.059 A 
ATOM      6  C   UNL     1       0.700  -0.631  -0.118  1.00  0.00     0.059 A 
ATOM      7  C   UNL     1       1.267  -2.011  -0.058  1.00  0.00     0.196 C 
ATOM      8  O   UNL     1       2.477  -2.216  -0.129  1.00  0.00    -0.288 OA
ATOM      9  C   UNL     1       0.375  -3.172   0.054  1.00  0.00     0.037 A 
ATOM     10  C   UNL     1       0.907  -4.463   0.111  1.00  0.00     0.033 A 
ATOM     11  C   UNL     1       0.029  -5.526   0.215  1.00  0.00     0.112 A 
ATOM     12  N   UNL     1      -1.312  -5.378   0.264  1.00  0.00    -0.264 NA
ATOM     13  C   UNL     1      -1.797  -4.113   0.206  1.00  0.00     0.123 A 
ATOM     14  C   UNL     1      -0.993  -2.988   0.099  1.00  0.00     0.052 A 
ATOM     15  C   UNL     1      -1.580  -1.649   0.049  1.00  0.00     0.198 C 
ATOM     16  O   UNL     1      -2.794  -1.550   0.189  1.00  0.00    -0.288 OA
ENDROOT
BRANCH   1  17
ATOM     17  N   UNL     1       2.962   0.347  -0.083  1.00  0.00    -0.383 N 
ATOM     18  H   UNL     1       3.242  -0.640  -0.180  1.00  0.00     0.160 HD
BRANCH  17  19
ATOM     19  C   UNL     1       3.872   1.246  -0.794  1.00  0.00     0.128 C 
BRANCH  19  20
ATOM     20  C   UNL     1       4.519   2.242   0.186  1.00  0.00     0.098 C 
BRANCH  20  21
ATOM     21  N   UNL     1       5.484   3.128  -0.472  1.00  0.00    -0.329 NA
ATOM     22  H   UNL     1       6.260   2.573  -0.832  1.00  0.00     0.118 HD
ATOM     23  H   UNL     1       5.888   3.750   0.228  1.00  0.00     0.118 HD
ENDBRANCH  20  21
ENDBRANCH  19  20
ENDBRANCH  17  19
ENDBRANCH   1  17
BRANCH   4  24
ATOM     24  N   UNL     1      -2.656   1.021  -0.405  1.00  0.00    -0.383 N 
ATOM     25  H   UNL     1      -3.196   0.202  -0.075  1.00  0.00     0.160 HD
BRANCH  24  26
ATOM     26  C   UNL     1      -3.279   2.262   0.058  1.00  0.00     0.128 C 
BRANCH  26  27
ATOM     27  C   UNL     1      -4.815   2.114   0.063  1.00  0.00     0.098 C 
BRANCH  27  28
ATOM     28  N   UNL     1      -5.270   0.982   0.875  1.00  0.00    -0.329 NA
ATOM     29  H   UNL     1      -6.287   0.970   0.910  1.00  0.00     0.118 HD
ATOM     30  H   UNL     1      -4.937   1.076   1.832  1.00  0.00     0.118 HD
ENDBRANCH  27  28
ENDBRANCH  26  27
ENDBRANCH  24  26
ENDBRANCH   4  24
TORSDOF 8
