REMARK SMILES CO/N=C1\CN(c2nc3c(cc2F)c(=O)c(C(=O)O)cn3C2CC2)CC1CN
REMARK SMILES IDX 7 1 8 2 9 3 10 4 11 5 12 6 13 7 14 8 15 9 16 10 20 11 21 12
REMARK SMILES IDX 6 13 3 14 4 15 5 16 26 17 25 18 2 19 1 20 27 21 28 22 22 25
REMARK SMILES IDX 23 26 24 27 17 28 18 29 19 30
REMARK H PARENT 28 23 28 24 19 31
REMARK Flexibility Score: inf
ROOT
ATOM      1  C   UNL     1       0.004   0.880   0.750  1.00  0.00     0.167 A 
ATOM      2  N   UNL     1       0.876   0.000   0.197  1.00  0.00    -0.210 NA
ATOM      3  C   UNL     1       2.145   0.385  -0.098  1.00  0.00     0.146 A 
ATOM      4  C   UNL     1       2.582   1.687   0.150  1.00  0.00     0.069 A 
ATOM      5  C   UNL     1       1.708   2.603   0.726  1.00  0.00     0.059 A 
ATOM      6  C   UNL     1       0.417   2.191   1.027  1.00  0.00     0.166 A 
ATOM      7  F   UNL     1      -0.413   3.082   1.590  1.00  0.00    -0.203 F 
ATOM      8  C   UNL     1       3.966   2.086  -0.193  1.00  0.00     0.205 C 
ATOM      9  O   UNL     1       4.376   3.187   0.154  1.00  0.00    -0.288 OA
ATOM     10  C   UNL     1       4.803   1.107  -0.930  1.00  0.00     0.124 C 
ATOM     11  C   UNL     1       4.295  -0.123  -1.105  1.00  0.00     0.107 C 
ATOM     12  N   UNL     1       3.057  -0.548  -0.666  1.00  0.00    -0.328 N 
ENDROOT
BRANCH   1  13
ATOM     13  N   UNL     1      -1.264   0.413   1.060  1.00  0.00    -0.348 N 
ATOM     14  N   UNL     1      -4.836   0.693   0.880  1.00  0.00    -0.094 NA
ATOM     15  C   UNL     1      -3.579   0.370   0.928  1.00  0.00     0.083 C 
ATOM     16  C   UNL     1      -2.408   1.325   1.041  1.00  0.00     0.173 C 
ATOM     17  C   UNL     1      -3.128  -1.070   0.920  1.00  0.00     0.072 C 
ATOM     18  C   UNL     1      -1.652  -0.903   0.538  1.00  0.00     0.129 C 
BRANCH  14  19
ATOM     19  O   UNL     1      -4.982   2.086   0.920  1.00  0.00    -0.399 OA
ATOM     20  C   UNL     1      -6.370   2.395   0.864  1.00  0.00     0.315 C 
ENDBRANCH  14  19
BRANCH  17  21
ATOM     21  C   UNL     1      -3.918  -1.933  -0.054  1.00  0.00     0.089 C 
BRANCH  21  22
ATOM     22  N   UNL     1      -3.404  -3.301  -0.105  1.00  0.00    -0.330 NA
ATOM     23  H   UNL     1      -3.965  -3.843  -0.763  1.00  0.00     0.118 HD
ATOM     24  H   UNL     1      -3.540  -3.750   0.802  1.00  0.00     0.118 HD
ENDBRANCH  21  22
ENDBRANCH  17  21
ENDBRANCH   1  13
BRANCH  12  25
ATOM     25  C   UNL     1       2.582  -1.891  -1.038  1.00  0.00     0.089 C 
ATOM     26  C   UNL     1       2.148  -2.888   0.008  1.00  0.00     0.027 C 
ATOM     27  C   UNL     1       3.397  -3.135  -0.780  1.00  0.00     0.027 C 
ENDBRANCH  12  25
BRANCH  10  28
ATOM     28  C   UNL     1       6.136   1.378  -1.481  1.00  0.00     0.341 C 
ATOM     29  O   UNL     1       6.991   0.540  -1.716  1.00  0.00    -0.246 OA
BRANCH  28  30
ATOM     30  O   UNL     1       6.334   2.667  -1.787  1.00  0.00    -0.477 OA
ATOM     31  H   UNL     1       7.251   2.712  -2.127  1.00  0.00     0.297 HD
ENDBRANCH  28  30
ENDBRANCH  10  28
TORSDOF 7
