REMARK SMILES N#Cc1ccc2c(c1)N(CCCN1CCC(O)CC1)c1ccccc1S2
REMARK SMILES IDX 11 1 10 2 9 3 3 4 4 5 8 6 5 7 7 8 6 9 26 10 20 11 25 12
REMARK SMILES IDX 21 13 24 14 22 15 23 16 2 17 1 18 12 19 13 20 14 21 19 22
REMARK SMILES IDX 15 23 18 24 16 25 17 26
REMARK H PARENT 17 27
REMARK Flexibility Score: inf
ROOT
ATOM      1  C   UNL     1       0.420  -0.041   1.582  1.00  0.00     0.037 C 
ENDROOT
BRANCH   1   2
ATOM      2  C   UNL     1      -0.906  -0.619   2.104  1.00  0.00     0.124 C 
BRANCH   2   3
ATOM      3  N   UNL     1      -2.046  -0.409   1.176  1.00  0.00    -0.340 N 
ATOM      4  C   UNL     1      -2.768   3.245   1.650  1.00  0.00     0.054 A 
ATOM      5  C   UNL     1      -3.101   3.633   0.356  1.00  0.00     0.021 A 
ATOM      6  C   UNL     1      -2.420   1.912   1.910  1.00  0.00     0.047 A 
ATOM      7  C   UNL     1      -3.095   2.688  -0.668  1.00  0.00     0.019 A 
ATOM      8  C   UNL     1      -2.387   0.940   0.888  1.00  0.00     0.057 A 
ATOM      9  C   UNL     1      -2.751   1.350  -0.410  1.00  0.00     0.036 A 
ATOM     10  S   UNL     1      -2.745   0.244  -1.806  1.00  0.00    -0.086 SA
ATOM     11  C   UNL     1      -2.396  -1.513   0.352  1.00  0.00     0.055 A 
ATOM     12  C   UNL     1      -2.752  -1.345  -1.001  1.00  0.00     0.036 A 
ATOM     13  C   UNL     1      -2.467  -2.818   0.880  1.00  0.00     0.027 A 
ATOM     14  C   UNL     1      -3.097  -2.454  -1.793  1.00  0.00     0.017 A 
ATOM     15  C   UNL     1      -2.817  -3.917   0.089  1.00  0.00     0.002 A 
ATOM     16  C   UNL     1      -3.125  -3.736  -1.252  1.00  0.00     0.001 A 
BRANCH   4  17
ATOM     17  C   UNL     1      -2.785   4.202   2.717  1.00  0.00     0.099 C 
ATOM     18  N   UNL     1      -2.794   4.975   3.583  1.00  0.00    -0.192 NA
ENDBRANCH   4  17
ENDBRANCH   2   3
ENDBRANCH   1   2
BRANCH   1  19
ATOM     19  C   UNL     1       0.930  -0.766   0.331  1.00  0.00     0.086 C 
BRANCH  19  20
ATOM     20  N   UNL     1       2.298  -0.355  -0.033  1.00  0.00    -0.303 NA
ATOM     21  C   UNL     1       2.351   0.989  -0.617  1.00  0.00     0.087 C 
ATOM     22  C   UNL     1       2.892  -1.346  -0.955  1.00  0.00     0.087 C 
ATOM     23  C   UNL     1       3.805   1.460  -0.731  1.00  0.00     0.047 C 
ATOM     24  C   UNL     1       4.077  -0.811  -1.764  1.00  0.00     0.047 C 
ATOM     25  C   UNL     1       4.777   0.315  -1.021  1.00  0.00     0.117 C 
BRANCH  25  26
ATOM     26  O   UNL     1       5.871   0.790  -1.801  1.00  0.00    -0.393 OA
ATOM     27  H   UNL     1       6.316   1.480  -1.281  1.00  0.00     0.210 HD
ENDBRANCH  25  26
ENDBRANCH  19  20
ENDBRANCH   1  19
TORSDOF 6
