REMARK SMILES NS(=O)(=O)c1cc2c(cc1C(F)(F)F)NCNS2(=O)=O
REMARK SMILES IDX 5 1 6 2 7 3 8 4 9 5 10 6 15 7 16 8 17 9 18 10 19 11 20 12
REMARK SMILES IDX 2 15 3 16 4 17 1 18 11 21 12 22 13 23 14 24
REMARK H PARENT 15 13 17 14 1 19 1 20
REMARK Flexibility Score: inf
ROOT
ATOM      1  C   UNL     1       1.417   0.069   0.214  1.00  0.00     0.095 A 
ATOM      2  C   UNL     1       0.421  -0.777   0.713  1.00  0.00     0.046 A 
ATOM      3  C   UNL     1      -0.891  -0.639   0.250  1.00  0.00     0.107 A 
ATOM      4  C   UNL     1      -1.256   0.327  -0.688  1.00  0.00     0.056 A 
ATOM      5  C   UNL     1      -0.233   1.133  -1.206  1.00  0.00     0.041 A 
ATOM      6  C   UNL     1       1.108   1.028  -0.767  1.00  0.00     0.078 A 
ATOM      7  N   UNL     1      -2.537   0.419  -1.242  1.00  0.00    -0.370 N 
ATOM      8  C   UNL     1      -3.637  -0.137  -0.488  1.00  0.00     0.214 C 
ATOM      9  N   UNL     1      -3.362  -1.524  -0.241  1.00  0.00    -0.193 NA
ATOM     10  S   UNL     1      -2.120  -1.742   0.855  1.00  0.00     0.244 S 
ATOM     11  O   UNL     1      -1.636  -3.092   0.674  1.00  0.00    -0.207 OA
ATOM     12  O   UNL     1      -2.548  -1.237   2.140  1.00  0.00    -0.207 OA
ATOM     13  H   UNL     1      -2.747   1.352  -1.592  1.00  0.00     0.161 HD
ATOM     14  H   UNL     1      -3.222  -2.082  -1.079  1.00  0.00     0.143 HD
ENDROOT
BRANCH   1  15
ATOM     15  S   UNL     1       3.070  -0.079   0.847  1.00  0.00     0.238 S 
ATOM     16  O   UNL     1       3.559   1.243   1.152  1.00  0.00    -0.207 OA
ATOM     17  O   UNL     1       3.777  -1.028   0.025  1.00  0.00    -0.207 OA
BRANCH  15  18
ATOM     18  N   UNL     1       2.872  -0.813   2.344  1.00  0.00    -0.225 NA
ATOM     19  H   UNL     1       3.359  -1.712   2.353  1.00  0.00     0.137 HD
ATOM     20  H   UNL     1       3.189  -0.179   3.080  1.00  0.00     0.137 HD
ENDBRANCH  15  18
ENDBRANCH   1  15
BRANCH   6  21
ATOM     21  C   UNL     1       2.145   1.951  -1.369  1.00  0.00     0.417 C 
ATOM     22  F   UNL     1       2.396   3.033  -0.589  1.00  0.00    -0.166 F 
ATOM     23  F   UNL     1       3.333   1.349  -1.623  1.00  0.00    -0.166 F 
ATOM     24  F   UNL     1       1.742   2.462  -2.570  1.00  0.00    -0.166 F 
ENDBRANCH   6  21
TORSDOF 3
