REMARK SMILES CN(C)/N=N/c1[nH]cnc1C(N)=O
REMARK SMILES IDX 6 1 7 2 8 3 9 4 10 5 5 7 4 8 2 9 1 10 3 11 11 12 12 13 13 14
REMARK H PARENT 7 6 12 15 12 16
REMARK Flexibility Score: inf
ROOT
ATOM      1  C   UNL     1      -0.836   0.229   0.594  1.00  0.00     0.187 A 
ATOM      2  N   UNL     1      -0.950   0.038   1.951  1.00  0.00    -0.328 N 
ATOM      3  C   UNL     1      -2.270   0.068   2.289  1.00  0.00     0.199 A 
ATOM      4  N   UNL     1      -3.030   0.272   1.239  1.00  0.00    -0.229 NA
ATOM      5  C   UNL     1      -2.146   0.379   0.164  1.00  0.00     0.174 A 
ATOM      6  H   UNL     1      -0.166  -0.099   2.573  1.00  0.00     0.169 HD
ENDROOT
BRANCH   1   7
ATOM      7  N   UNL     1       0.358   0.265  -0.046  1.00  0.00    -0.112 NA
ATOM      8  N   UNL     1       1.326  -0.220   0.571  1.00  0.00    -0.070 NA
BRANCH   8   9
ATOM      9  N   UNL     1       2.511  -0.142  -0.120  1.00  0.00    -0.285 NA
ATOM     10  C   UNL     1       2.496  -0.021  -1.575  1.00  0.00     0.169 C 
ATOM     11  C   UNL     1       3.580  -0.936   0.457  1.00  0.00     0.169 C 
ENDBRANCH   8   9
ENDBRANCH   1   7
BRANCH   5  12
ATOM     12  C   UNL     1      -2.598   0.614  -1.203  1.00  0.00     0.271 C 
ATOM     13  N   UNL     1      -3.956   0.727  -1.310  1.00  0.00    -0.364 N 
ATOM     14  O   UNL     1      -1.870   0.706  -2.185  1.00  0.00    -0.268 OA
ATOM     15  H   UNL     1      -4.524   0.643  -0.475  1.00  0.00     0.160 HD
ATOM     16  H   UNL     1      -4.372   0.890  -2.213  1.00  0.00     0.160 HD
ENDBRANCH   5  12
TORSDOF 3
