REMARK SMILES COc1ccc2c(c1)N(C[C@H](C)CN(C)C)c1ccccc1S2
REMARK SMILES IDX 11 1 12 2 10 3 9 4 3 5 4 6 8 7 5 8 7 9 6 10 23 11 17 12
REMARK SMILES IDX 22 13 18 14 21 15 19 16 20 17 2 18 1 19 13 20 14 21 15 22
REMARK SMILES IDX 16 23
REMARK H PARENT
REMARK Flexibility Score: inf
ROOT
ATOM      1  C   UNL     1      -1.433  -1.152  -0.359  1.00  0.00     0.020 C 
ATOM      2  C   UNL     1      -0.752  -1.361  -1.715  1.00  0.00     0.011 C 
ENDROOT
BRANCH   1   3
ATOM      3  C   UNL     1      -0.439  -0.919   0.807  1.00  0.00     0.127 C 
BRANCH   3   4
ATOM      4  N   UNL     1       0.576   0.146   0.585  1.00  0.00    -0.339 N 
ATOM      5  C   UNL     1       3.601  -1.817  -0.503  1.00  0.00     0.121 A 
ATOM      6  C   UNL     1       4.174  -0.947  -1.421  1.00  0.00     0.048 A 
ATOM      7  C   UNL     1       2.419  -1.444   0.152  1.00  0.00     0.073 A 
ATOM      8  C   UNL     1       3.575   0.288  -1.665  1.00  0.00     0.021 A 
ATOM      9  C   UNL     1       1.771  -0.216  -0.094  1.00  0.00     0.059 A 
ATOM     10  C   UNL     1       2.394   0.662  -1.002  1.00  0.00     0.036 A 
ATOM     11  S   UNL     1       1.715   2.257  -1.413  1.00  0.00    -0.086 SA
ATOM     12  C   UNL     1       0.174   1.490   0.801  1.00  0.00     0.055 A 
ATOM     13  C   UNL     1       0.647   2.540  -0.013  1.00  0.00     0.036 A 
ATOM     14  C   UNL     1      -0.661   1.846   1.878  1.00  0.00     0.027 A 
ATOM     15  C   UNL     1       0.257   3.870   0.224  1.00  0.00     0.017 A 
ATOM     16  C   UNL     1      -1.040   3.172   2.117  1.00  0.00     0.002 A 
ATOM     17  C   UNL     1      -0.586   4.185   1.286  1.00  0.00     0.001 A 
BRANCH   5  18
ATOM     18  O   UNL     1       4.086  -3.046  -0.148  1.00  0.00    -0.497 OA
ATOM     19  C   UNL     1       5.301  -3.459  -0.761  1.00  0.00     0.278 C 
ENDBRANCH   5  18
ENDBRANCH   3   4
ENDBRANCH   1   3
BRANCH   1  20
ATOM     20  C   UNL     1      -2.532  -0.075  -0.490  1.00  0.00     0.089 C 
BRANCH  20  21
ATOM     21  N   UNL     1      -3.368   0.103   0.715  1.00  0.00    -0.309 NA
ATOM     22  C   UNL     1      -4.192   1.308   0.567  1.00  0.00     0.104 C 
ATOM     23  C   UNL     1      -4.234  -1.052   0.964  1.00  0.00     0.104 C 
ENDBRANCH  20  21
ENDBRANCH   1  20
TORSDOF 5
