REMARK SMILES c1ccc2[nH]c(-c3cscn3)nc2c1
REMARK SMILES IDX 1 1 2 2 3 3 4 4 5 5 6 6 12 7 13 8 14 9 7 11 8 12 11 13 9 14
REMARK SMILES IDX 10 15
REMARK H PARENT 5 10
REMARK Flexibility Score: inf
ROOT
ATOM      1  C   UNL     1      -3.524  -0.798   0.611  1.00  0.00     0.002 A 
ATOM      2  C   UNL     1      -3.380   0.326   1.429  1.00  0.00     0.002 A 
ATOM      3  C   UNL     1      -2.148   0.976   1.564  1.00  0.00     0.028 A 
ATOM      4  C   UNL     1      -1.078   0.444   0.840  1.00  0.00     0.066 A 
ATOM      5  N   UNL     1       0.237   0.808   0.730  1.00  0.00    -0.337 N 
ATOM      6  C   UNL     1       0.854  -0.068  -0.123  1.00  0.00     0.158 A 
ATOM      7  N   UNL     1       0.014  -0.977  -0.571  1.00  0.00    -0.227 NA
ATOM      8  C   UNL     1      -1.191  -0.673   0.018  1.00  0.00     0.089 A 
ATOM      9  C   UNL     1      -2.434  -1.310  -0.103  1.00  0.00     0.030 A 
ATOM     10  H   UNL     1       0.700   1.581   1.186  1.00  0.00     0.168 HD
ENDROOT
BRANCH   6  11
ATOM     11  C   UNL     1       2.361   0.038  -0.487  1.00  0.00     0.116 A 
ATOM     12  C   UNL     1       2.986  -0.841  -1.345  1.00  0.00     0.098 A 
ATOM     13  N   UNL     1       3.158   1.039   0.045  1.00  0.00    -0.241 NA
ATOM     14  S   UNL     1       4.638  -0.411  -1.504  1.00  0.00    -0.130 S 
ATOM     15  C   UNL     1       4.379   0.898  -0.424  1.00  0.00     0.176 A 
ENDBRANCH   6  11
TORSDOF 1
