REMARK SMILES CCN1CCN(c2cc(-c3ccc(F)cc3)c3c(n2)CCCCCC3)CC1
REMARK SMILES IDX 25 1 17 2 7 3 8 4 19 5 9 6 18 7 6 8 3 9 4 10 27 11 5 12
REMARK SMILES IDX 26 13 2 14 1 15 10 16 11 17 16 18 12 19 15 20 13 21 14 22
REMARK SMILES IDX 20 23 21 24 24 26 23 27 22 28
REMARK H PARENT
REMARK Flexibility Score: 90.00
ROOT
ATOM      1  C   UNL     1      -3.516  -0.325   0.080  1.00  0.00     0.038 C 
ENDROOT
BRANCH   1   2
ATOM      2  C   UNL     1      -2.005  -0.218   0.167  1.00  0.00    -0.018 A 
ATOM      3  C   UNL     1       0.793   0.051   0.246  1.00  0.00     0.129 A 
ATOM      4  C   UNL     1      -0.013   1.135   0.545  1.00  0.00     0.056 A 
ATOM      5  N   UNL     1       0.230  -1.124  -0.081  1.00  0.00    -0.236 NA
ATOM      6  C   UNL     1      -1.412   1.027   0.496  1.00  0.00    -0.010 A 
ATOM      7  C   UNL     1      -1.125  -1.263  -0.139  1.00  0.00     0.047 A 
BRANCH   3   8
ATOM      8  N   UNL     1       2.182   0.148   0.309  1.00  0.00    -0.354 N 
ATOM      9  N   UNL     1       5.073   0.300  -0.082  1.00  0.00    -0.300 NA
ATOM     10  C   UNL     1       4.158   1.063  -0.945  1.00  0.00     0.106 C 
ATOM     11  C   UNL     1       4.423  -0.930   0.427  1.00  0.00     0.106 C 
ATOM     12  C   UNL     1       2.800   1.357  -0.262  1.00  0.00     0.133 C 
ATOM     13  C   UNL     1       2.917  -1.104   0.097  1.00  0.00     0.133 C 
BRANCH   9  14
ATOM     14  C   UNL     1       6.357   0.046  -0.741  1.00  0.00     0.081 C 
ATOM     15  C   UNL     1       7.419  -0.444   0.237  1.00  0.00     0.021 C 
ENDBRANCH   9  14
ENDBRANCH   3   8
BRANCH   6  16
ATOM     16  C   UNL     1      -2.192   2.241   0.788  1.00  0.00    -0.018 A 
ATOM     17  C   UNL     1      -2.426   2.638   2.116  1.00  0.00     0.012 A 
ATOM     18  C   UNL     1      -2.701   3.033  -0.255  1.00  0.00     0.012 A 
ATOM     19  C   UNL     1      -3.159   3.794   2.393  1.00  0.00     0.040 A 
ATOM     20  C   UNL     1      -3.434   4.189   0.023  1.00  0.00     0.040 A 
ATOM     21  C   UNL     1      -3.656   4.557   1.344  1.00  0.00     0.123 A 
ATOM     22  F   UNL     1      -4.360   5.665   1.610  1.00  0.00    -0.207 F 
ENDBRANCH   6  16
BRANCH   7  23
ATOM     23  C   UNL     1      -1.537  -2.661  -0.521  1.00  0.00     0.056 C 
BRANCH  23  24
ATOM     24  C   UNL     1      -2.542  -2.786  -1.668  1.00  0.00     0.006 CG0
ATOM     25  G   UNL     1      -3.864  -3.398  -1.211  1.00  0.00     0.000 G0
ENDBRANCH  23  24
ENDBRANCH   7  23
ENDBRANCH   1   2
BRANCH   1  26
ATOM     26  C   UNL     1      -4.203  -1.588   0.619  1.00  0.00     0.005 C 
BRANCH  26  27
ATOM     27  C   UNL     1      -4.816  -2.453  -0.483  1.00  0.00     0.000 C 
BRANCH  27  28
ATOM     28  C   UNL     1      -3.864  -3.398  -1.211  1.00  0.00     0.000 CG0
ATOM     29  G   UNL     1      -2.542  -2.786  -1.668  1.00  0.00     0.000 G0
ENDBRANCH  27  28
ENDBRANCH  26  27
ENDBRANCH   1  26
TORSDOF 3
