REMARK SMILES O=C(O)c1cn(C2CC2)c2cc(N3CCNCC3)c(F)cc2c1=O
REMARK SMILES IDX 4 1 5 2 6 3 10 4 11 5 12 6 19 7 20 8 21 9 22 10 23 11 24 12
REMARK SMILES IDX 2 13 1 14 3 15 7 17 8 18 9 19 13 20 14 21 18 22 15 23 17 24
REMARK SMILES IDX 16 25
REMARK H PARENT 3 16 16 26
REMARK Flexibility Score: inf
ROOT
ATOM      1  C   UNL     1      -3.849  -1.463   0.356  1.00  0.00     0.124 C 
ATOM      2  C   UNL     1      -3.553  -0.203  -0.002  1.00  0.00     0.106 C 
ATOM      3  N   UNL     1      -2.291   0.362  -0.054  1.00  0.00    -0.343 N 
ATOM      4  C   UNL     1      -1.151  -0.470   0.137  1.00  0.00     0.054 A 
ATOM      5  C   UNL     1       0.169  -0.009  -0.051  1.00  0.00     0.056 A 
ATOM      6  C   UNL     1       1.299  -0.824   0.162  1.00  0.00     0.075 A 
ATOM      7  C   UNL     1       1.045  -2.156   0.551  1.00  0.00     0.147 A 
ATOM      8  F   UNL     1       2.061  -3.019   0.715  1.00  0.00    -0.205 F 
ATOM      9  C   UNL     1      -0.242  -2.646   0.739  1.00  0.00     0.055 A 
ATOM     10  C   UNL     1      -1.335  -1.805   0.531  1.00  0.00     0.050 A 
ATOM     11  C   UNL     1      -2.707  -2.339   0.721  1.00  0.00     0.204 C 
ATOM     12  O   UNL     1      -2.859  -3.468   1.173  1.00  0.00    -0.288 OA
ENDROOT
BRANCH   1  13
ATOM     13  C   UNL     1      -5.241  -1.947   0.357  1.00  0.00     0.341 C 
ATOM     14  O   UNL     1      -5.621  -3.103   0.383  1.00  0.00    -0.246 OA
BRANCH  13  15
ATOM     15  O   UNL     1      -6.152  -0.952   0.315  1.00  0.00    -0.477 OA
ATOM     16  H   UNL     1      -7.005  -1.436   0.335  1.00  0.00     0.297 HD
ENDBRANCH  13  15
ENDBRANCH   1  13
BRANCH   3  17
ATOM     17  C   UNL     1      -2.170   1.753  -0.535  1.00  0.00     0.087 C 
ATOM     18  C   UNL     1      -3.029   2.870   0.009  1.00  0.00     0.027 C 
ATOM     19  C   UNL     1      -1.568   2.837   0.325  1.00  0.00     0.027 C 
ENDBRANCH   3  17
BRANCH   6  20
ATOM     20  N   UNL     1       2.613  -0.360  -0.034  1.00  0.00    -0.367 N 
ATOM     21  C   UNL     1       3.511  -0.527   1.135  1.00  0.00     0.132 C 
ATOM     22  C   UNL     1       2.828   0.906  -0.763  1.00  0.00     0.132 C 
ATOM     23  C   UNL     1       4.985  -0.275   0.738  1.00  0.00     0.102 C 
ATOM     24  C   UNL     1       4.324   1.099  -1.104  1.00  0.00     0.102 C 
ATOM     25  N   UNL     1       5.209   1.027   0.075  1.00  0.00    -0.313 NA
ATOM     26  H   UNL     1       4.936   1.763   0.726  1.00  0.00     0.122 HD
ENDBRANCH   6  20
TORSDOF 4
