REMARK SMILES N#Cc1ccc(Oc2ccc3c(c2)COB3O)cc1
REMARK SMILES IDX 7 1 6 2 3 3 4 4 19 5 5 6 18 7 2 8 1 9 8 10 9 11 13 12 10 13
REMARK SMILES IDX 12 14 11 15 14 16 16 17 15 18 17 19
REMARK H PARENT 17 20
REMARK Flexibility Score: inf
ROOT
ATOM      1  O   UNL     1       0.703  -1.621  -0.803  1.00  0.00    -0.457 OA
ENDROOT
BRANCH   1   2
ATOM      2  C   UNL     1       1.830  -0.810  -0.844  1.00  0.00     0.127 A 
ATOM      3  C   UNL     1       4.145   0.731  -0.771  1.00  0.00     0.052 A 
ATOM      4  C   UNL     1       3.212   0.864  -1.778  1.00  0.00     0.023 A 
ATOM      5  C   UNL     1       3.875  -0.208   0.206  1.00  0.00     0.023 A 
ATOM      6  C   UNL     1       2.055   0.117  -1.845  1.00  0.00     0.048 A 
ATOM      7  C   UNL     1       2.739  -0.992   0.205  1.00  0.00     0.048 A 
BRANCH   3   8
ATOM      8  C   UNL     1       5.347   1.516  -0.712  1.00  0.00     0.099 C 
ATOM      9  N   UNL     1       6.300   2.153  -0.651  1.00  0.00    -0.192 NA
ENDBRANCH   3   8
ENDBRANCH   1   2
BRANCH   1  10
ATOM     10  C   UNL     1      -0.442  -1.199  -0.140  1.00  0.00     0.127 A 
ATOM     11  C   UNL     1      -0.682  -1.455   1.195  1.00  0.00     0.047 A 
ATOM     12  C   UNL     1      -1.362  -0.486  -0.913  1.00  0.00     0.052 A 
ATOM     13  C   UNL     1      -1.869  -0.985   1.766  1.00  0.00     0.004 A 
ATOM     14  C   UNL     1      -2.527  -0.022  -0.361  1.00  0.00    -0.020 A 
ATOM     15  C   UNL     1      -2.764  -0.281   0.980  1.00  0.00    -0.012 A 
ATOM     16  C   UNL     1      -3.666   0.748  -0.923  1.00  0.00     0.177 C 
ATOM     17  B   UNL     1      -4.164   0.388   1.257  1.00  0.00     0.491 B 
ATOM     18  O   UNL     1      -4.320   1.339   0.133  1.00  0.00    -0.403 OA
BRANCH  17  19
ATOM     19  O   UNL     1      -4.713   0.681   2.592  1.00  0.00    -0.423 OA
ATOM     20  H   UNL     1      -4.636   1.662   2.760  1.00  0.00     0.189 HD
ENDBRANCH  17  19
ENDBRANCH   1  10
TORSDOF 4
