REMARK SMILES CC1(C)CC(=O)N(CCCCN2CCN(c3ncccn3)CC2)C(=O)C1
REMARK SMILES IDX 10 1 9 2 8 3 7 4 1 5 2 6 3 7 4 8 26 9 5 10 24 11 6 12 25 13
REMARK SMILES IDX 11 14 12 15 13 16 23 17 14 18 22 19 15 20 16 21 17 22 21 23
REMARK SMILES IDX 18 24 20 25 19 26
REMARK H PARENT
REMARK Flexibility Score: inf
ROOT
ATOM      1  C   UNL     1      -0.055   0.882  -2.377  1.00  0.00     0.017 C 
ENDROOT
BRANCH   1   2
ATOM      2  C   UNL     1      -1.402   0.851  -1.645  1.00  0.00     0.023 C 
BRANCH   2   3
ATOM      3  C   UNL     1      -1.418   0.008  -0.366  1.00  0.00     0.128 C 
BRANCH   3   4
ATOM      4  N   UNL     1      -2.784  -0.199   0.122  1.00  0.00    -0.283 N 
ATOM      5  C   UNL     1      -5.918   0.579  -0.788  1.00  0.00     0.012 C 
ATOM      6  C   UNL     1      -5.608  -0.231   0.485  1.00  0.00    -0.018 C 
ATOM      7  C   UNL     1      -6.939  -0.570   1.178  1.00  0.00     0.012 C 
ATOM      8  C   UNL     1      -4.872  -1.528   0.151  1.00  0.00     0.107 C 
ATOM      9  C   UNL     1      -4.728   0.565   1.448  1.00  0.00     0.107 C 
ATOM     10  C   UNL     1      -3.476  -1.297  -0.383  1.00  0.00     0.229 C 
ATOM     11  C   UNL     1      -3.333   0.805   0.917  1.00  0.00     0.229 C 
ATOM     12  O   UNL     1      -2.998  -2.087  -1.199  1.00  0.00    -0.274 OA
ATOM     13  O   UNL     1      -2.734   1.836   1.224  1.00  0.00    -0.274 OA
ENDBRANCH   3   4
ENDBRANCH   2   3
ENDBRANCH   1   2
BRANCH   1  14
ATOM     14  C   UNL     1       1.104   1.497  -1.578  1.00  0.00     0.084 C 
BRANCH  14  15
ATOM     15  N   UNL     1       1.609   0.637  -0.498  1.00  0.00    -0.300 NA
ATOM     16  C   UNL     1       2.257  -0.590  -1.027  1.00  0.00     0.106 C 
ATOM     17  C   UNL     1       2.527   1.376   0.400  1.00  0.00     0.106 C 
ATOM     18  C   UNL     1       3.398  -1.151  -0.147  1.00  0.00     0.135 C 
ATOM     19  C   UNL     1       4.035   1.257   0.079  1.00  0.00     0.135 C 
ATOM     20  N   UNL     1       4.447  -0.145  -0.001  1.00  0.00    -0.338 N 
BRANCH  20  21
ATOM     21  C   UNL     1       5.637  -0.523   0.581  1.00  0.00     0.225 A 
ATOM     22  N   UNL     1       6.557   0.420   0.849  1.00  0.00    -0.221 NA
ATOM     23  N   UNL     1       5.848  -1.826   0.838  1.00  0.00    -0.221 NA
ATOM     24  C   UNL     1       7.722   0.025   1.396  1.00  0.00     0.117 A 
ATOM     25  C   UNL     1       7.027  -2.177   1.386  1.00  0.00     0.117 A 
ATOM     26  C   UNL     1       8.017  -1.280   1.692  1.00  0.00     0.040 A 
ENDBRANCH  20  21
ENDBRANCH  14  15
ENDBRANCH   1  14
TORSDOF 6
