REMARK SMILES CO/N=C(\C(=O)N[C@@H]1C(=O)N2C(C(=O)[O-])=C(C[N+]3(C)CCCC3)CS[C@H]12)c1csc(N)n1
REMARK SMILES IDX 5 1 6 2 7 3 4 5 3 6 2 7 1 8 27 9 28 10 32 11 29 12 30 13
REMARK SMILES IDX 31 14 8 17 9 18 26 19 10 20 11 21 25 22 12 23 24 24 16 25
REMARK SMILES IDX 13 26 14 27 15 28 17 29 18 30 19 31 20 32 23 33 21 34 22 35
REMARK H PARENT 7 4 31 15 31 16
REMARK Flexibility Score: inf
ROOT
ATOM      1  C   UNL     1       3.770   0.451  -0.452  1.00  0.00     0.276 C 
ATOM      2  O   UNL     1       4.124   1.285  -1.273  1.00  0.00    -0.267 OA
ATOM      3  N   UNL     1       2.719   0.601   0.427  1.00  0.00    -0.336 N 
ATOM      4  H   UNL     1       2.475  -0.178   1.029  1.00  0.00     0.164 HD
ENDROOT
BRANCH   1   5
ATOM      5  C   UNL     1       4.501  -0.880  -0.334  1.00  0.00     0.193 C 
ATOM      6  N   UNL     1       4.053  -1.981  -0.873  1.00  0.00    -0.079 NA
BRANCH   6   7
ATOM      7  O   UNL     1       2.856  -1.760  -1.559  1.00  0.00    -0.398 OA
ATOM      8  C   UNL     1       2.469  -2.966  -2.202  1.00  0.00     0.315 C 
ENDBRANCH   6   7
BRANCH   5   9
ATOM      9  C   UNL     1       5.734  -0.949   0.440  1.00  0.00     0.111 A 
ATOM     10  C   UNL     1       6.553  -2.061   0.525  1.00  0.00     0.099 A 
ATOM     11  N   UNL     1       6.171   0.134   1.199  1.00  0.00    -0.218 NA
ATOM     12  S   UNL     1       7.884  -1.741   1.555  1.00  0.00    -0.105 S 
ATOM     13  C   UNL     1       7.289  -0.154   1.812  1.00  0.00     0.180 A 
BRANCH  13  14
ATOM     14  N   UNL     1       7.928   0.714   2.610  1.00  0.00    -0.375 N 
ATOM     15  H   UNL     1       7.373   1.508   2.913  1.00  0.00     0.159 HD
ATOM     16  H   UNL     1       8.522   0.331   3.335  1.00  0.00     0.159 HD
ENDBRANCH  13  14
ENDBRANCH   5   9
ENDBRANCH   1   5
BRANCH   3  17
ATOM     17  C   UNL     1       1.952   1.870   0.506  1.00  0.00     0.206 C 
ATOM     18  C   UNL     1       0.839   1.899   1.607  1.00  0.00     0.253 C 
ATOM     19  C   UNL     1       0.777   2.107  -0.484  1.00  0.00     0.181 C 
ATOM     20  O   UNL     1       0.817   1.823   2.812  1.00  0.00    -0.272 OA
ATOM     21  N   UNL     1      -0.107   1.933   0.648  1.00  0.00    -0.293 N 
ATOM     22  S   UNL     1       0.362   0.832  -1.709  1.00  0.00    -0.129 SA
ATOM     23  C   UNL     1      -1.459   1.820   0.574  1.00  0.00     0.073 C 
ATOM     24  C   UNL     1      -1.336   1.454  -1.921  1.00  0.00     0.111 C 
ATOM     25  C   UNL     1      -2.078   1.606  -0.614  1.00  0.00     0.020 C 
BRANCH  23  26
ATOM     26  C   UNL     1      -2.348   1.827   1.850  1.00  0.00     0.088 C 
ATOM     27  O   UNL     1      -2.952   2.915   2.051  1.00  0.00    -0.543 OA
ATOM     28  O   UNL     1      -2.535   0.685   2.358  1.00  0.00    -0.543 OA
ENDBRANCH  23  26
BRANCH  25  29
ATOM     29  C   UNL     1      -3.581   1.523  -0.720  1.00  0.00     0.299 C 
BRANCH  29  30
ATOM     30  N   UNL     1      -4.231   0.118  -0.652  1.00  0.00    -0.322 N 
ATOM     31  C   UNL     1      -4.954  -0.165  -1.950  1.00  0.00     0.334 C 
ATOM     32  C   UNL     1      -5.203   0.071   0.538  1.00  0.00     0.264 C 
ATOM     33  C   UNL     1      -3.268  -1.024  -0.304  1.00  0.00     0.264 C 
ATOM     34  C   UNL     1      -5.387  -1.406   0.837  1.00  0.00     0.067 C 
ATOM     35  C   UNL     1      -4.133  -2.100   0.333  1.00  0.00     0.067 C 
ENDBRANCH  29  30
ENDBRANCH  25  29
ENDBRANCH   3  17
TORSDOF 8
