REMARK SMILES O=C(OC1C[C@@H]2CC3C[C@H](C1)N2CC3=O)c1c[nH]c2ccccc12
REMARK SMILES IDX 2 1 1 2 3 3 4 4 8 5 7 6 9 7 14 8 6 9 10 10 13 11 15 12 5 13
REMARK SMILES IDX 12 14 11 15 16 16 17 17 24 18 18 19 19 20 23 21 20 23 22 24
REMARK SMILES IDX 21 25
REMARK H PARENT 18 22
REMARK Flexibility Score: inf
ROOT
ATOM      1  C   UNL     1      -1.600   0.061   0.706  1.00  0.00     0.340 C 
ATOM      2  O   UNL     1      -1.342   0.903   1.558  1.00  0.00    -0.246 OA
ENDROOT
BRANCH   1   3
ATOM      3  O   UNL     1      -0.655  -0.669   0.039  1.00  0.00    -0.459 OA
BRANCH   3   4
ATOM      4  C   UNL     1       0.717  -0.414   0.396  1.00  0.00     0.180 C 
ATOM      5  C   UNL     1       4.284   0.131  -1.849  1.00  0.00     0.060 C 
ATOM      6  C   UNL     1       3.468   1.362  -1.430  1.00  0.00     0.031 C 
ATOM      7  C   UNL     1       3.434  -1.140  -1.696  1.00  0.00     0.031 C 
ATOM      8  C   UNL     1       5.387   0.037  -0.814  1.00  0.00     0.150 C 
ATOM      9  C   UNL     1       2.748   1.054  -0.091  1.00  0.00     0.061 C 
ATOM     10  C   UNL     1       3.028  -1.332  -0.206  1.00  0.00     0.061 C 
ATOM     11  C   UNL     1       4.861   0.024   0.617  1.00  0.00     0.161 C 
ATOM     12  O   UNL     1       6.578  -0.014  -1.104  1.00  0.00    -0.298 OA
ATOM     13  C   UNL     1       1.234   0.834  -0.320  1.00  0.00     0.064 C 
ATOM     14  N   UNL     1       3.377  -0.122   0.574  1.00  0.00    -0.290 NA
ATOM     15  C   UNL     1       1.535  -1.646  -0.020  1.00  0.00     0.064 C 
ENDBRANCH   3   4
ENDBRANCH   1   3
BRANCH   1  16
ATOM     16  C   UNL     1      -2.956  -0.271   0.283  1.00  0.00     0.085 A 
ATOM     17  C   UNL     1      -3.306  -1.214  -0.670  1.00  0.00     0.099 A 
ATOM     18  C   UNL     1      -4.185   0.300   0.759  1.00  0.00     0.014 A 
ATOM     19  N   UNL     1      -4.669  -1.234  -0.786  1.00  0.00    -0.360 N 
ATOM     20  C   UNL     1      -5.232  -0.320   0.073  1.00  0.00     0.046 A 
ATOM     21  C   UNL     1      -4.507   1.290   1.712  1.00  0.00     0.011 A 
ATOM     22  H   UNL     1      -5.195  -1.831  -1.409  1.00  0.00     0.166 HD
ATOM     23  C   UNL     1      -6.578  -0.001   0.291  1.00  0.00     0.027 A 
ATOM     24  C   UNL     1      -5.847   1.621   1.942  1.00  0.00     0.001 A 
ATOM     25  C   UNL     1      -6.866   0.983   1.241  1.00  0.00     0.002 A 
ENDBRANCH   1  16
TORSDOF 3
