REMARK SMILES CCCc1nn(C)c2c(=O)[nH]c(-c3cc(S(=O)(=O)N4CCN(C)CC4)ccc3OCC)nc12
REMARK SMILES IDX 4 1 5 2 6 3 7 4 8 5 9 6 10 7 11 8 12 9 32 10 33 11 3 13 2 14
REMARK SMILES IDX 1 15 13 16 14 17 28 18 15 19 27 20 26 21 29 22 30 23 31 24
REMARK SMILES IDX 16 25 17 26 18 27 19 28 20 29 25 30 21 31 24 32 22 33 23 34
REMARK H PARENT 11 12
REMARK Flexibility Score: inf
ROOT
ATOM      1  C   UNL     1      -4.396  -0.866   0.048  1.00  0.00     0.089 A 
ATOM      2  N   UNL     1      -5.297  -1.738   0.541  1.00  0.00    -0.175 NA
ATOM      3  N   UNL     1      -4.762  -2.136   1.722  1.00  0.00    -0.261 N 
ATOM      4  C   UNL     1      -5.468  -3.091   2.544  1.00  0.00     0.174 C 
ATOM      5  C   UNL     1      -3.551  -1.572   1.976  1.00  0.00     0.152 A 
ATOM      6  C   UNL     1      -2.653  -1.724   3.063  1.00  0.00     0.277 C 
ATOM      7  O   UNL     1      -2.821  -2.444   4.040  1.00  0.00    -0.267 OA
ATOM      8  N   UNL     1      -1.523  -0.954   2.894  1.00  0.00    -0.305 N 
ATOM      9  C   UNL     1      -1.319  -0.129   1.794  1.00  0.00     0.144 C 
ATOM     10  N   UNL     1      -2.140   0.019   0.793  1.00  0.00    -0.226 NA
ATOM     11  C   UNL     1      -3.300  -0.748   0.918  1.00  0.00     0.120 A 
ATOM     12  H   UNL     1      -0.850  -0.998   3.646  1.00  0.00     0.171 HD
ENDROOT
BRANCH   1  13
ATOM     13  C   UNL     1      -4.631  -0.173  -1.252  1.00  0.00     0.060 C 
BRANCH  13  14
ATOM     14  C   UNL     1      -4.209  -0.992  -2.476  1.00  0.00     0.003 C 
ATOM     15  C   UNL     1      -2.701  -1.170  -2.594  1.00  0.00     0.004 C 
ENDBRANCH  13  14
ENDBRANCH   1  13
BRANCH   9  16
ATOM     16  C   UNL     1      -0.037   0.597   1.805  1.00  0.00     0.061 A 
ATOM     17  C   UNL     1       1.143  -0.135   1.636  1.00  0.00     0.037 A 
ATOM     18  C   UNL     1       0.007   1.984   1.981  1.00  0.00     0.130 A 
ATOM     19  C   UNL     1       2.367   0.541   1.643  1.00  0.00     0.083 A 
ATOM     20  C   UNL     1       1.237   2.645   2.029  1.00  0.00     0.048 A 
ATOM     21  C   UNL     1       2.421   1.923   1.862  1.00  0.00     0.025 A 
BRANCH  18  22
ATOM     22  O   UNL     1      -1.125   2.708   2.229  1.00  0.00    -0.493 OA
BRANCH  22  23
ATOM     23  C   UNL     1      -1.646   3.292   1.026  1.00  0.00     0.226 C 
ATOM     24  C   UNL     1      -1.919   4.759   1.295  1.00  0.00     0.049 C 
ENDBRANCH  22  23
ENDBRANCH  18  22
BRANCH  19  25
ATOM     25  S   UNL     1       3.884  -0.384   1.502  1.00  0.00     0.243 S 
ATOM     26  O   UNL     1       3.593  -1.744   1.905  1.00  0.00    -0.207 OA
ATOM     27  O   UNL     1       4.913   0.389   2.165  1.00  0.00    -0.207 OA
BRANCH  25  28
ATOM     28  N   UNL     1       4.193  -0.377  -0.148  1.00  0.00    -0.195 NA
ATOM     29  C   UNL     1       3.454  -1.329  -1.015  1.00  0.00     0.118 C 
ATOM     30  C   UNL     1       4.569   0.892  -0.808  1.00  0.00     0.118 C 
ATOM     31  C   UNL     1       3.405  -0.866  -2.489  1.00  0.00     0.101 C 
ATOM     32  C   UNL     1       5.350   0.573  -2.101  1.00  0.00     0.101 C 
ATOM     33  N   UNL     1       4.672  -0.351  -3.045  1.00  0.00    -0.304 NA
ATOM     34  C   UNL     1       5.571  -1.446  -3.420  1.00  0.00     0.105 C 
ENDBRANCH  25  28
ENDBRANCH  19  25
ENDBRANCH   9  16
TORSDOF 7
