REMARK SMILES CN1C(CCl)Nc2cc(Cl)c(S(N)(=O)=O)cc2S1(=O)=O
REMARK SMILES IDX 1 1 2 2 3 3 6 4 7 5 8 6 9 7 10 8 11 9 16 10 17 11 18 12
REMARK SMILES IDX 19 13 20 14 4 16 5 17 12 18 14 19 15 20 13 21
REMARK H PARENT 6 15 13 22 13 23
REMARK Flexibility Score: inf
ROOT
ATOM      1  C   UNL     1      -3.210   2.157  -0.617  1.00  0.00     0.127 C 
ATOM      2  N   UNL     1      -2.136   1.144  -0.549  1.00  0.00    -0.178 NA
ATOM      3  C   UNL     1      -2.528  -0.161   0.019  1.00  0.00     0.180 C 
ATOM      4  N   UNL     1      -1.495  -1.139  -0.321  1.00  0.00    -0.367 N 
ATOM      5  C   UNL     1      -0.154  -0.888  -0.058  1.00  0.00     0.057 A 
ATOM      6  C   UNL     1       0.768  -1.939  -0.170  1.00  0.00     0.049 A 
ATOM      7  C   UNL     1       2.150  -1.735  -0.013  1.00  0.00     0.063 A 
ATOM      8  Cl  UNL     1       3.158  -3.128  -0.174  1.00  0.00    -0.083 Cl
ATOM      9  C   UNL     1       2.629  -0.448   0.234  1.00  0.00     0.102 A 
ATOM     10  C   UNL     1       1.732   0.622   0.318  1.00  0.00     0.047 A 
ATOM     11  C   UNL     1       0.361   0.385   0.163  1.00  0.00     0.107 A 
ATOM     12  S   UNL     1      -0.751   1.737   0.237  1.00  0.00     0.246 S 
ATOM     13  O   UNL     1      -1.093   1.942   1.629  1.00  0.00    -0.207 OA
ATOM     14  O   UNL     1      -0.213   2.809  -0.571  1.00  0.00    -0.207 OA
ATOM     15  H   UNL     1      -1.783  -2.092  -0.093  1.00  0.00     0.162 HD
ENDROOT
BRANCH   3  16
ATOM     16  C   UNL     1      -3.873  -0.672  -0.556  1.00  0.00     0.151 C 
ATOM     17  Cl  UNL     1      -4.306  -2.277   0.113  1.00  0.00    -0.123 Cl
ENDBRANCH   3  16
BRANCH   9  18
ATOM     18  S   UNL     1       4.348  -0.123   0.462  1.00  0.00     0.239 S 
ATOM     19  O   UNL     1       4.883  -1.037   1.441  1.00  0.00    -0.207 OA
ATOM     20  O   UNL     1       4.540   1.306   0.574  1.00  0.00    -0.207 OA
BRANCH  18  21
ATOM     21  N   UNL     1       5.015  -0.528  -1.022  1.00  0.00    -0.225 NA
ATOM     22  H   UNL     1       5.455   0.292  -1.442  1.00  0.00     0.137 HD
ATOM     23  H   UNL     1       5.645  -1.325  -0.916  1.00  0.00     0.137 HD
ENDBRANCH  18  21
ENDBRANCH   9  18
TORSDOF 3
