REMARK SMILES OCCn1cc(-c2cnc3nnn(Cc4ccc5ncccc5c4)c3n2)cn1
REMARK SMILES IDX 4 1 5 2 6 3 27 4 28 5 3 6 2 7 1 8 7 10 8 11 26 12 9 13 25 14
REMARK SMILES IDX 10 15 13 16 11 17 12 18 14 19 15 20 24 21 16 22 23 23 17 24
REMARK SMILES IDX 22 25 18 26 21 27 19 28 20 29
REMARK H PARENT 1 9
REMARK Flexibility Score: inf
ROOT
ATOM      1  N   UNL     1       3.813   0.566   0.916  1.00  0.00    -0.270 N 
ATOM      2  C   UNL     1       2.754   0.015   0.257  1.00  0.00     0.119 A 
ATOM      3  C   UNL     1       2.667  -1.298   0.680  1.00  0.00     0.040 A 
ATOM      4  C   UNL     1       3.735  -1.425   1.598  1.00  0.00     0.145 A 
ATOM      5  N   UNL     1       4.432  -0.295   1.743  1.00  0.00    -0.181 NA
ENDROOT
BRANCH   1   6
ATOM      6  C   UNL     1       4.294   1.926   0.804  1.00  0.00     0.172 C 
BRANCH   6   7
ATOM      7  C   UNL     1       3.860   2.780   1.985  1.00  0.00     0.179 C 
BRANCH   7   8
ATOM      8  O   UNL     1       4.314   4.122   1.821  1.00  0.00    -0.394 OA
ATOM      9  H   UNL     1       5.264   4.137   2.034  1.00  0.00     0.210 HD
ENDBRANCH   7   8
ENDBRANCH   6   7
ENDBRANCH   1   6
BRANCH   3  10
ATOM     10  C   UNL     1       1.665  -2.247   0.225  1.00  0.00     0.094 A 
ATOM     11  C   UNL     1       1.674  -3.581   0.655  1.00  0.00     0.143 A 
ATOM     12  N   UNL     1       0.725  -1.757  -0.633  1.00  0.00    -0.224 NA
ATOM     13  N   UNL     1       0.772  -4.531   0.285  1.00  0.00    -0.230 NA
ATOM     14  C   UNL     1      -0.165  -2.716  -0.975  1.00  0.00     0.198 A 
ATOM     15  C   UNL     1      -0.171  -4.041  -0.560  1.00  0.00     0.221 A 
ATOM     16  N   UNL     1      -1.260  -2.638  -1.786  1.00  0.00    -0.221 N 
ATOM     17  N   UNL     1      -1.220  -4.703  -1.132  1.00  0.00    -0.108 NA
ATOM     18  N   UNL     1      -1.884  -3.834  -1.895  1.00  0.00    -0.063 NA
BRANCH  16  19
ATOM     19  C   UNL     1      -1.733  -1.481  -2.514  1.00  0.00     0.184 C 
BRANCH  19  20
ATOM     20  C   UNL     1      -2.590  -0.597  -1.643  1.00  0.00    -0.026 A 
ATOM     21  C   UNL     1      -2.022   0.455  -0.912  1.00  0.00     0.016 A 
ATOM     22  C   UNL     1      -3.963  -0.830  -1.521  1.00  0.00     0.008 A 
ATOM     23  C   UNL     1      -2.815   1.270  -0.083  1.00  0.00     0.000 A 
ATOM     24  C   UNL     1      -4.747  -0.014  -0.698  1.00  0.00     0.029 A 
ATOM     25  C   UNL     1      -2.266   2.325   0.656  1.00  0.00     0.012 A 
ATOM     26  C   UNL     1      -4.202   1.037   0.026  1.00  0.00     0.070 A 
ATOM     27  C   UNL     1      -3.087   3.105   1.462  1.00  0.00     0.021 A 
ATOM     28  N   UNL     1      -5.000   1.791   0.803  1.00  0.00    -0.256 NA
ATOM     29  C   UNL     1      -4.434   2.801   1.500  1.00  0.00     0.112 A 
ENDBRANCH  19  20
ENDBRANCH  16  19
ENDBRANCH   3  10
TORSDOF 6
