REMARK SMILES O=C(Cc1ccc(-c2ccc(OCCN3CCOCC3)cc2)cn1)NCc1ccccc1
REMARK SMILES IDX 8 1 9 2 10 3 11 4 21 5 22 6 7 7 4 8 5 9 24 10 6 11 23 12
REMARK SMILES IDX 3 13 2 14 1 15 25 16 26 18 27 19 28 20 32 21 29 22 31 23
REMARK SMILES IDX 30 24 12 25 13 26 14 27 15 28 16 29 20 30 17 31 19 32 18 33
REMARK H PARENT 25 17
REMARK Flexibility Score: inf
ROOT
ATOM      1  C   UNL     1      -0.350  -0.447  -0.877  1.00  0.00    -0.017 A 
ATOM      2  C   UNL     1      -1.033  -0.721   0.317  1.00  0.00     0.012 A 
ATOM      3  C   UNL     1      -2.321  -0.224   0.537  1.00  0.00     0.047 A 
ATOM      4  C   UNL     1      -2.961   0.551  -0.430  1.00  0.00     0.119 A 
ATOM      5  C   UNL     1      -2.297   0.833  -1.621  1.00  0.00     0.047 A 
ATOM      6  C   UNL     1      -1.004   0.339  -1.840  1.00  0.00     0.012 A 
ENDROOT
BRANCH   1   7
ATOM      7  C   UNL     1       1.005  -0.964  -1.108  1.00  0.00     0.000 A 
ATOM      8  C   UNL     1       3.591  -1.865  -1.558  1.00  0.00     0.050 A 
ATOM      9  C   UNL     1       2.604  -2.782  -1.208  1.00  0.00     0.025 A 
ATOM     10  N   UNL     1       3.340  -0.539  -1.676  1.00  0.00    -0.260 NA
ATOM     11  C   UNL     1       1.306  -2.324  -0.986  1.00  0.00     0.012 A 
ATOM     12  C   UNL     1       2.066  -0.128  -1.454  1.00  0.00     0.120 A 
BRANCH   8  13
ATOM     13  C   UNL     1       5.009  -2.314  -1.772  1.00  0.00     0.156 C 
BRANCH  13  14
ATOM     14  C   UNL     1       5.729  -2.459  -0.451  1.00  0.00     0.226 C 
ATOM     15  O   UNL     1       5.817  -3.535   0.135  1.00  0.00    -0.275 OA
ATOM     16  N   UNL     1       6.261  -1.283   0.031  1.00  0.00    -0.352 N 
ATOM     17  H   UNL     1       5.890  -0.419  -0.355  1.00  0.00     0.163 HD
BRANCH  16  18
ATOM     18  C   UNL     1       6.825  -1.231   1.357  1.00  0.00     0.151 C 
BRANCH  18  19
ATOM     19  C   UNL     1       7.508   0.087   1.600  1.00  0.00    -0.029 A 
ATOM     20  C   UNL     1       8.874   0.240   1.329  1.00  0.00     0.005 A 
ATOM     21  C   UNL     1       6.779   1.192   2.063  1.00  0.00     0.005 A 
ATOM     22  C   UNL     1       9.504   1.469   1.538  1.00  0.00     0.000 A 
ATOM     23  C   UNL     1       7.412   2.419   2.272  1.00  0.00     0.000 A 
ATOM     24  C   UNL     1       8.773   2.556   2.013  1.00  0.00     0.000 A 
ENDBRANCH  18  19
ENDBRANCH  16  18
ENDBRANCH  13  14
ENDBRANCH   8  13
ENDBRANCH   1   7
BRANCH   4  25
ATOM     25  O   UNL     1      -4.213   0.974  -0.085  1.00  0.00    -0.492 OA
BRANCH  25  26
ATOM     26  C   UNL     1      -4.977   1.648  -1.089  1.00  0.00     0.245 C 
BRANCH  26  27
ATOM     27  C   UNL     1      -6.373   1.993  -0.533  1.00  0.00     0.126 C 
BRANCH  27  28
ATOM     28  N   UNL     1      -7.338   0.875  -0.560  1.00  0.00    -0.295 NA
ATOM     29  C   UNL     1      -8.699   1.317  -0.180  1.00  0.00     0.113 C 
ATOM     30  C   UNL     1      -6.903  -0.249   0.300  1.00  0.00     0.113 C 
ATOM     31  C   UNL     1      -9.059   1.010   1.281  1.00  0.00     0.175 C 
ATOM     32  C   UNL     1      -8.085  -1.113   0.767  1.00  0.00     0.175 C 
ATOM     33  O   UNL     1      -9.006  -0.388   1.594  1.00  0.00    -0.379 OA
ENDBRANCH  27  28
ENDBRANCH  26  27
ENDBRANCH  25  26
ENDBRANCH   4  25
TORSDOF 9
