REMARK SMILES Cn1ccnc1S
REMARK SMILES IDX 1 1 2 2 3 3 4 4 5 5 6 6 7 7
REMARK H PARENT 7 8
REMARK Flexibility Score: inf
ROOT
ATOM      1  C   UNL     1      -1.107  -1.202  -0.687  1.00  0.00     0.152 C 
ATOM      2  N   UNL     1      -0.092  -0.350  -0.119  1.00  0.00    -0.329 N 
ATOM      3  C   UNL     1       1.173  -0.747   0.229  1.00  0.00     0.108 A 
ATOM      4  C   UNL     1       1.779   0.386   0.722  1.00  0.00     0.132 A 
ATOM      5  N   UNL     1       0.921   1.455   0.684  1.00  0.00    -0.231 NA
ATOM      6  C   UNL     1      -0.192   0.982   0.175  1.00  0.00     0.164 A 
ENDROOT
BRANCH   6   7
ATOM      7  S   UNL     1      -1.615   1.920  -0.095  1.00  0.00    -0.105 SA
ATOM      8  H   UNL     1      -1.113   3.074   0.366  1.00  0.00     0.111 HD
ENDBRANCH   6   7
TORSDOF 1
