REMARK SMILES CN1CCN2c3ccccc3Cc3ccccc3C2C1
REMARK SMILES IDX 1 1 2 2 3 3 4 4 5 5 6 6 7 7 8 8 9 9 10 10 11 11 12 12 13 13
REMARK SMILES IDX 14 14 15 15 16 16 17 17 18 18 19 19 20 20
REMARK H PARENT
REMARK Flexibility Score: inf
ROOT
ATOM      1  C   UNL     1       3.378  -0.063  -1.298  1.00  0.00     0.105 C 
ATOM      2  N   UNL     1       3.181   0.442   0.063  1.00  0.00    -0.302 NA
ATOM      3  C   UNL     1       3.075  -0.675   1.022  1.00  0.00     0.105 C 
ATOM      4  C   UNL     1       1.818  -1.574   0.879  1.00  0.00     0.133 C 
ATOM      5  N   UNL     1       0.618  -0.808   0.475  1.00  0.00    -0.362 N 
ATOM      6  C   UNL     1      -0.516  -1.507   0.097  1.00  0.00     0.041 A 
ATOM      7  C   UNL     1      -0.822  -2.767   0.644  1.00  0.00     0.026 A 
ATOM      8  C   UNL     1      -1.947  -3.501   0.252  1.00  0.00     0.002 A 
ATOM      9  C   UNL     1      -2.803  -2.993  -0.713  1.00  0.00     0.000 A 
ATOM     10  C   UNL     1      -2.527  -1.757  -1.284  1.00  0.00     0.006 A 
ATOM     11  C   UNL     1      -1.391  -1.019  -0.894  1.00  0.00    -0.020 A 
ATOM     12  C   UNL     1      -1.126   0.310  -1.553  1.00  0.00     0.073 C 
ATOM     13  C   UNL     1      -1.342   1.429  -0.571  1.00  0.00    -0.038 A 
ATOM     14  C   UNL     1      -2.397   2.338  -0.764  1.00  0.00     0.004 A 
ATOM     15  C   UNL     1      -2.646   3.345   0.165  1.00  0.00     0.000 A 
ATOM     16  C   UNL     1      -1.849   3.453   1.299  1.00  0.00     0.000 A 
ATOM     17  C   UNL     1      -0.800   2.555   1.499  1.00  0.00     0.006 A 
ATOM     18  C   UNL     1      -0.530   1.526   0.573  1.00  0.00    -0.021 A 
ATOM     19  C   UNL     1       0.685   0.637   0.811  1.00  0.00     0.127 C 
ATOM     20  C   UNL     1       1.948   1.277   0.129  1.00  0.00     0.114 C 
ENDROOT
TORSDOF 0
