REMARK SMILES Cn1ncnc1[C@H]1c2n[nH]c(=O)c3cc(F)cc(c23)N[C@@H]1c1ccc(F)cc1
REMARK SMILES IDX 7 1 8 2 9 3 10 4 11 5 12 6 13 7 14 8 15 9 16 10 17 11 18 12
REMARK SMILES IDX 19 13 20 14 21 15 6 18 1 19 2 20 3 21 4 22 5 23 22 24 23 25
REMARK SMILES IDX 28 26 24 27 27 28 25 29 26 30
REMARK H PARENT 10 16 20 17
REMARK Flexibility Score: inf
ROOT
ATOM      1  C   UNL     1      -1.001   0.761  -0.240  1.00  0.00     0.136 C 
ATOM      2  C   UNL     1       0.472   0.806  -0.609  1.00  0.00     0.084 C 
ATOM      3  N   UNL     1       0.830   1.410  -1.705  1.00  0.00    -0.176 NA
ATOM      4  N   UNL     1       2.165   1.473  -1.983  1.00  0.00    -0.243 N 
ATOM      5  C   UNL     1       3.187   1.005  -1.186  1.00  0.00     0.272 C 
ATOM      6  O   UNL     1       4.368   1.141  -1.481  1.00  0.00    -0.267 OA
ATOM      7  C   UNL     1       2.783   0.317   0.048  1.00  0.00     0.055 A 
ATOM      8  C   UNL     1       3.725  -0.198   0.936  1.00  0.00     0.054 A 
ATOM      9  C   UNL     1       3.278  -0.835   2.087  1.00  0.00     0.126 A 
ATOM     10  F   UNL     1       4.171  -1.319   2.959  1.00  0.00    -0.207 F 
ATOM     11  C   UNL     1       1.916  -0.983   2.352  1.00  0.00     0.065 A 
ATOM     12  C   UNL     1       0.968  -0.506   1.443  1.00  0.00     0.048 A 
ATOM     13  C   UNL     1       1.426   0.184   0.316  1.00  0.00     0.035 A 
ATOM     14  N   UNL     1      -0.401  -0.644   1.747  1.00  0.00    -0.376 N 
ATOM     15  C   UNL     1      -1.307  -0.516   0.576  1.00  0.00     0.126 C 
ATOM     16  H   UNL     1       2.435   1.955  -2.836  1.00  0.00     0.194 HD
ATOM     17  H   UNL     1      -0.653   0.096   2.417  1.00  0.00     0.161 HD
ENDROOT
BRANCH   1  18
ATOM     18  C   UNL     1      -1.318   2.012   0.533  1.00  0.00     0.138 A 
ATOM     19  C   UNL     1      -1.435   3.667  -1.400  1.00  0.00     0.176 C 
ATOM     20  N   UNL     1      -1.502   3.255  -0.021  1.00  0.00    -0.252 N 
ATOM     21  N   UNL     1      -1.764   4.171   0.930  1.00  0.00    -0.160 NA
ATOM     22  C   UNL     1      -1.725   3.435   2.039  1.00  0.00     0.246 A 
ATOM     23  N   UNL     1      -1.458   2.112   1.844  1.00  0.00    -0.219 NA
ENDBRANCH   1  18
BRANCH  15  24
ATOM     24  C   UNL     1      -1.336  -1.847  -0.186  1.00  0.00    -0.024 A 
ATOM     25  C   UNL     1      -1.054  -1.973  -1.558  1.00  0.00     0.009 A 
ATOM     26  C   UNL     1      -1.685  -3.014   0.527  1.00  0.00     0.009 A 
ATOM     27  C   UNL     1      -1.111  -3.221  -2.187  1.00  0.00     0.039 A 
ATOM     28  C   UNL     1      -1.742  -4.259  -0.102  1.00  0.00     0.039 A 
ATOM     29  C   UNL     1      -1.454  -4.350  -1.455  1.00  0.00     0.123 A 
ATOM     30  F   UNL     1      -1.508  -5.541  -2.065  1.00  0.00    -0.207 F 
ENDBRANCH  15  24
TORSDOF 2
