REMARK SMILES N[C@@H](Cc1c[nH]c2ccccc12)C(=O)O
REMARK SMILES IDX 2 1 1 2 3 5 4 6 5 7 12 8 6 9 7 10 11 11 8 13 10 14 9 15
REMARK SMILES IDX 13 16 14 17 15 18
REMARK H PARENT 1 3 1 4 6 12 15 19
REMARK Flexibility Score: inf
ROOT
ATOM      1  C   UNL     1      -2.134   0.291  -0.099  1.00  0.00     0.166 C 
ENDROOT
BRANCH   1   2
ATOM      2  N   UNL     1      -2.752   0.272   1.258  1.00  0.00    -0.318 NA
ATOM      3  H   UNL     1      -3.249  -0.609   1.377  1.00  0.00     0.119 HD
ATOM      4  H   UNL     1      -3.485   0.986   1.260  1.00  0.00     0.119 HD
ENDBRANCH   1   2
BRANCH   1   5
ATOM      5  C   UNL     1      -1.206  -0.915  -0.326  1.00  0.00     0.068 C 
BRANCH   5   6
ATOM      6  C   UNL     1       0.101  -0.806   0.401  1.00  0.00    -0.021 A 
ATOM      7  C   UNL     1       0.393  -1.314   1.651  1.00  0.00     0.087 A 
ATOM      8  C   UNL     1       1.289  -0.156  -0.069  1.00  0.00     0.003 A 
ATOM      9  N   UNL     1       1.686  -0.991   1.957  1.00  0.00    -0.361 N 
ATOM     10  C   UNL     1       2.259  -0.288   0.924  1.00  0.00     0.046 A 
ATOM     11  C   UNL     1       1.627   0.536  -1.251  1.00  0.00     0.010 A 
ATOM     12  H   UNL     1       2.158  -1.229   2.818  1.00  0.00     0.166 HD
ATOM     13  C   UNL     1       3.551   0.237   0.797  1.00  0.00     0.026 A 
ATOM     14  C   UNL     1       2.915   1.067  -1.395  1.00  0.00     0.001 A 
ATOM     15  C   UNL     1       3.861   0.918  -0.384  1.00  0.00     0.002 A 
ENDBRANCH   5   6
ENDBRANCH   1   5
BRANCH   1  16
ATOM     16  C   UNL     1      -3.222   0.308  -1.182  1.00  0.00     0.320 C 
ATOM     17  O   UNL     1      -3.090   0.020  -2.361  1.00  0.00    -0.251 OA
BRANCH  16  18
ATOM     18  O   UNL     1      -4.425   0.737  -0.730  1.00  0.00    -0.480 OA
ATOM     19  H   UNL     1      -4.992   0.725  -1.530  1.00  0.00     0.296 HD
ENDBRANCH  16  18
ENDBRANCH   1  16
TORSDOF 5
