REMARK SMILES Cc1[nH]c(/C=C2\C(=O)Nc3ccc(F)cc32)c(C)c1C(=O)N[C@H]1CCN(C(=O)N(C)C)C1
REMARK SMILES IDX 22 1 20 2 21 3 23 5 26 6 25 7 32 8 24 9 27 10 30 11 29 12
REMARK SMILES IDX 31 13 28 14 19 15 2 16 17 17 1 18 3 19 4 20 18 21 5 23 6 24
REMARK SMILES IDX 7 25 16 26 8 27 9 28 10 29 15 30 11 32 13 33 12 34 14 35
REMARK H PARENT 22 4 3 22 9 31
REMARK Flexibility Score: inf
ROOT
ATOM      1  N   UNL     1       1.382   0.109  -0.893  1.00  0.00    -0.347 N 
ATOM      2  C   UNL     1       0.815  -0.603  -1.925  1.00  0.00     0.253 C 
ATOM      3  O   UNL     1       1.478  -1.213  -2.759  1.00  0.00    -0.269 OA
ATOM      4  H   UNL     1       0.778   0.723  -0.359  1.00  0.00     0.164 HD
ENDROOT
BRANCH   1   5
ATOM      5  C   UNL     1       2.815   0.163  -0.715  1.00  0.00     0.103 C 
ATOM      6  N   UNL     1       4.638  -0.711   0.522  1.00  0.00    -0.323 N 
ATOM      7  C   UNL     1       4.656   0.738   0.681  1.00  0.00     0.123 C 
ATOM      8  C   UNL     1       3.423  -1.133  -0.163  1.00  0.00     0.146 C 
ATOM      9  C   UNL     1       3.240   1.183   0.339  1.00  0.00     0.048 C 
BRANCH   6  10
ATOM     10  C   UNL     1       5.307  -1.605   1.333  1.00  0.00     0.319 C 
ATOM     11  C   UNL     1       6.995  -1.925   3.033  1.00  0.00     0.148 C 
ATOM     12  N   UNL     1       6.484  -1.154   1.915  1.00  0.00    -0.331 N 
ATOM     13  C   UNL     1       7.495  -0.477   1.118  1.00  0.00     0.148 C 
ATOM     14  O   UNL     1       4.860  -2.730   1.559  1.00  0.00    -0.248 OA
ENDBRANCH   6  10
ENDBRANCH   1   5
BRANCH   2  15
ATOM     15  C   UNL     1      -0.644  -0.514  -1.972  1.00  0.00     0.063 A 
ATOM     16  C   UNL     1      -1.384  -0.410  -3.143  1.00  0.00     0.025 A 
ATOM     17  C   UNL     1      -1.590  -0.533  -0.884  1.00  0.00    -0.013 A 
ATOM     18  C   UNL     1      -0.942  -0.380  -4.563  1.00  0.00     0.065 C 
ATOM     19  N   UNL     1      -2.707  -0.307  -2.800  1.00  0.00    -0.358 N 
ATOM     20  C   UNL     1      -2.848  -0.347  -1.436  1.00  0.00     0.043 A 
ATOM     21  C   UNL     1      -1.280  -0.743   0.560  1.00  0.00     0.047 C 
ATOM     22  H   UNL     1      -3.464  -0.193  -3.460  1.00  0.00     0.166 HD
BRANCH  20  23
ATOM     23  C   UNL     1      -4.159  -0.252  -0.915  1.00  0.00     0.041 C 
ATOM     24  C   UNL     1      -4.556   0.699  -0.057  1.00  0.00     0.051 C 
ATOM     25  C   UNL     1      -3.771   1.864   0.506  1.00  0.00     0.256 C 
ATOM     26  C   UNL     1      -5.914   0.797   0.500  1.00  0.00     0.014 A 
ATOM     27  O   UNL     1      -2.617   2.189   0.307  1.00  0.00    -0.269 OA
ATOM     28  N   UNL     1      -4.670   2.535   1.326  1.00  0.00    -0.321 N 
ATOM     29  C   UNL     1      -5.918   1.926   1.327  1.00  0.00     0.049 A 
ATOM     30  C   UNL     1      -7.059   0.035   0.353  1.00  0.00     0.050 A 
ATOM     31  H   UNL     1      -4.415   3.368   1.834  1.00  0.00     0.170 HD
ATOM     32  C   UNL     1      -7.037   2.337   2.026  1.00  0.00     0.030 A 
ATOM     33  C   UNL     1      -8.197   0.439   1.052  1.00  0.00     0.123 A 
ATOM     34  C   UNL     1      -8.196   1.572   1.879  1.00  0.00     0.041 A 
ATOM     35  F   UNL     1      -9.323  -0.276   0.930  1.00  0.00    -0.207 F 
ENDBRANCH  20  23
ENDBRANCH   2  15
TORSDOF 4
