REMARK SMILES CCC1(c2ccccc2)C(=O)NC(=O)NC1=O
REMARK SMILES IDX 3 1 10 2 11 3 12 4 13 5 14 6 15 7 16 8 17 9 2 12 1 13 4 14
REMARK SMILES IDX 5 15 9 16 6 17 8 18 7 19
REMARK H PARENT 12 10 15 11
REMARK Flexibility Score: inf
ROOT
ATOM      1  C   UNL     1      -0.765   0.222   0.401  1.00  0.00     0.153 C 
ATOM      2  C   UNL     1      -1.838  -0.505  -0.427  1.00  0.00     0.248 C 
ATOM      3  O   UNL     1      -2.563   0.027  -1.263  1.00  0.00    -0.273 OA
ATOM      4  N   UNL     1      -1.946  -1.853  -0.201  1.00  0.00    -0.277 N 
ATOM      5  C   UNL     1      -1.765  -2.409   1.025  1.00  0.00     0.328 C 
ATOM      6  O   UNL     1      -2.330  -3.451   1.343  1.00  0.00    -0.248 OA
ATOM      7  N   UNL     1      -1.028  -1.703   1.921  1.00  0.00    -0.277 N 
ATOM      8  C   UNL     1      -0.870  -0.345   1.832  1.00  0.00     0.248 C 
ATOM      9  O   UNL     1      -0.796   0.330   2.857  1.00  0.00    -0.273 OA
ATOM     10  H   UNL     1      -2.654  -2.319  -0.755  1.00  0.00     0.174 HD
ATOM     11  H   UNL     1      -1.085  -2.061   2.865  1.00  0.00     0.174 HD
ENDROOT
BRANCH   1  12
ATOM     12  C   UNL     1      -1.060   1.750   0.453  1.00  0.00     0.028 C 
ATOM     13  C   UNL     1      -0.798   2.537  -0.829  1.00  0.00     0.006 C 
ENDBRANCH   1  12
BRANCH   1  14
ATOM     14  C   UNL     1       0.664  -0.022  -0.139  1.00  0.00    -0.023 A 
ATOM     15  C   UNL     1       0.900  -0.464  -1.454  1.00  0.00     0.005 A 
ATOM     16  C   UNL     1       1.784   0.247   0.674  1.00  0.00     0.005 A 
ATOM     17  C   UNL     1       2.201  -0.665  -1.922  1.00  0.00     0.000 A 
ATOM     18  C   UNL     1       3.082   0.044   0.202  1.00  0.00     0.000 A 
ATOM     19  C   UNL     1       3.291  -0.417  -1.093  1.00  0.00     0.000 A 
ENDBRANCH   1  14
TORSDOF 2
