REMARK SMILES CC(CC(C#N)(c1ccccc1)C(C)C)N(C)C
REMARK SMILES IDX 3 1 2 2 1 3 16 4 17 5 18 6 4 7 5 8 6 9 7 10 8 11 12 12 9 13
REMARK SMILES IDX 11 14 10 15 13 16 14 17 15 18
REMARK H PARENT
REMARK Flexibility Score: inf
ROOT
ATOM      1  C   UNL     1       0.150  -0.999   1.165  1.00  0.00     0.046 C 
ENDROOT
BRANCH   1   2
ATOM      2  C   UNL     1       1.456  -0.990   0.331  1.00  0.00     0.054 C 
ATOM      3  C   UNL     1       2.591  -1.628   1.157  1.00  0.00     0.024 C 
BRANCH   2   4
ATOM      4  N   UNL     1       1.779   0.341  -0.204  1.00  0.00    -0.307 NA
ATOM      5  C   UNL     1       2.410   1.251   0.755  1.00  0.00     0.105 C 
ATOM      6  C   UNL     1       2.600   0.269  -1.415  1.00  0.00     0.105 C 
ENDBRANCH   2   4
ENDBRANCH   1   2
BRANCH   1   7
ATOM      7  C   UNL     1      -1.221  -0.562   0.508  1.00  0.00     0.086 C 
BRANCH   7   8
ATOM      8  C   UNL     1      -2.264  -0.895   1.551  1.00  0.00     0.074 C 
ATOM      9  N   UNL     1      -3.049  -1.178   2.360  1.00  0.00    -0.197 NA
ENDBRANCH   7   8
BRANCH   7  10
ATOM     10  C   UNL     1      -1.372   0.974   0.300  1.00  0.00    -0.027 A 
ATOM     11  C   UNL     1      -2.047   1.533  -0.802  1.00  0.00     0.005 A 
ATOM     12  C   UNL     1      -0.938   1.879   1.292  1.00  0.00     0.005 A 
ATOM     13  C   UNL     1      -2.211   2.916  -0.942  1.00  0.00     0.000 A 
ATOM     14  C   UNL     1      -1.103   3.262   1.157  1.00  0.00     0.000 A 
ATOM     15  C   UNL     1      -1.732   3.782   0.033  1.00  0.00     0.000 A 
ENDBRANCH   7  10
BRANCH   7  16
ATOM     16  C   UNL     1      -1.603  -1.444  -0.766  1.00  0.00     0.008 C 
ATOM     17  C   UNL     1      -0.804  -1.177  -2.054  1.00  0.00     0.009 C 
ATOM     18  C   UNL     1      -1.577  -2.965  -0.508  1.00  0.00     0.009 C 
ENDBRANCH   7  16
ENDBRANCH   1   7
TORSDOF 6
