REMARK SMILES Nc1c([18F])ccc2cnc(-n3ccc4ccncc43)cc12
REMARK SMILES IDX 2 1 3 2 4 3 5 4 6 5 7 6 8 7 9 8 10 9 20 10 21 11 1 12 11 15
REMARK SMILES IDX 12 16 19 17 13 18 14 19 18 20 15 21 17 22 16 23
REMARK H PARENT 1 13 1 14
REMARK Flexibility Score: inf
ROOT
ATOM      1  C   UNL     1      -3.384  -0.916   0.132  1.00  0.00     0.076 A 
ATOM      2  C   UNL     1      -4.630  -0.266   0.132  1.00  0.00     0.146 A 
ATOM      3  F   UNL     1      -5.748  -0.989   0.299  1.00  0.00    -0.205 F 
ATOM      4  C   UNL     1      -4.736   1.109  -0.030  1.00  0.00     0.042 A 
ATOM      5  C   UNL     1      -3.578   1.869  -0.170  1.00  0.00     0.013 A 
ATOM      6  C   UNL     1      -2.314   1.252  -0.142  1.00  0.00     0.002 A 
ATOM      7  C   UNL     1      -1.133   1.979  -0.260  1.00  0.00     0.122 A 
ATOM      8  N   UNL     1       0.107   1.440  -0.236  1.00  0.00    -0.238 NA
ATOM      9  C   UNL     1       0.218   0.098  -0.095  1.00  0.00     0.137 A 
ATOM     10  C   UNL     1      -0.909  -0.713   0.032  1.00  0.00     0.058 A 
ATOM     11  C   UNL     1      -2.201  -0.145   0.015  1.00  0.00     0.013 A 
ENDROOT
BRANCH   1  12
ATOM     12  N   UNL     1      -3.323  -2.309   0.413  1.00  0.00    -0.396 N 
ATOM     13  H   UNL     1      -3.036  -2.456   1.380  1.00  0.00     0.156 HD
ATOM     14  H   UNL     1      -4.244  -2.732   0.279  1.00  0.00     0.156 HD
ENDBRANCH   1  12
BRANCH   9  15
ATOM     15  N   UNL     1       1.539  -0.475  -0.080  1.00  0.00    -0.300 N 
ATOM     16  C   UNL     1       1.841  -1.823   0.041  1.00  0.00     0.094 A 
ATOM     17  C   UNL     1       2.750   0.221  -0.184  1.00  0.00     0.073 A 
ATOM     18  C   UNL     1       3.204  -1.993   0.018  1.00  0.00     0.029 A 
ATOM     19  C   UNL     1       3.790  -0.715  -0.123  1.00  0.00     0.003 A 
ATOM     20  C   UNL     1       3.035   1.580  -0.324  1.00  0.00     0.138 A 
ATOM     21  C   UNL     1       5.118  -0.274  -0.204  1.00  0.00     0.030 A 
ATOM     22  N   UNL     1       4.323   1.997  -0.401  1.00  0.00    -0.262 NA
ATOM     23  C   UNL     1       5.314   1.088  -0.342  1.00  0.00     0.111 A 
ENDBRANCH   9  15
TORSDOF 2
