REMARK SMILES COc1c2ccoc2cc2oc(=O)ccc12
REMARK SMILES IDX 3 1 4 2 5 3 6 4 7 5 8 6 9 7 10 8 11 9 12 10 13 11 14 12
REMARK SMILES IDX 15 13 16 14 2 15 1 16
REMARK H PARENT
REMARK Flexibility Score: inf
ROOT
ATOM      1  C   UNL     1      -0.400   0.494   0.471  1.00  0.00     0.140 A 
ATOM      2  C   UNL     1      -1.348  -0.553   0.490  1.00  0.00     0.063 A 
ATOM      3  C   UNL     1      -2.709  -0.697   0.878  1.00  0.00     0.054 A 
ATOM      4  C   UNL     1      -3.050  -2.006   0.631  1.00  0.00     0.196 A 
ATOM      5  O   UNL     1      -1.991  -2.687   0.121  1.00  0.00    -0.464 OA
ATOM      6  C   UNL     1      -0.953  -1.810   0.043  1.00  0.00     0.141 A 
ATOM      7  C   UNL     1       0.325  -2.117  -0.410  1.00  0.00     0.095 A 
ATOM      8  C   UNL     1       1.244  -1.065  -0.379  1.00  0.00     0.145 A 
ATOM      9  O   UNL     1       2.553  -1.372  -0.820  1.00  0.00    -0.422 OA
ATOM     10  C   UNL     1       3.562  -0.420  -0.829  1.00  0.00     0.336 C 
ATOM     11  O   UNL     1       4.698  -0.667  -1.216  1.00  0.00    -0.246 OA
ATOM     12  C   UNL     1       3.205   0.924  -0.346  1.00  0.00     0.095 C 
ATOM     13  C   UNL     1       1.974   1.232   0.070  1.00  0.00     0.023 C 
ATOM     14  C   UNL     1       0.920   0.222   0.059  1.00  0.00     0.061 A 
ENDROOT
BRANCH   1  15
ATOM     15  O   UNL     1      -0.724   1.756   0.927  1.00  0.00    -0.495 OA
ATOM     16  C   UNL     1      -1.441   2.471  -0.080  1.00  0.00     0.278 C 
ENDBRANCH   1  15
TORSDOF 1
