REMARK SMILES CC#Cc1cncc(-c2ccc3c(c2)[C@@]2(N=C(C)C(N)=N2)[C@]2(CC[C@H](OC)CC2)C3)c1
REMARK SMILES IDX 25 1 28 2 29 3 22 4 30 5 12 6 11 7 10 8 9 9 14 10 13 11
REMARK SMILES IDX 15 12 16 13 17 14 18 15 19 16 20 17 21 18 23 19 24 20 26 23
REMARK SMILES IDX 27 24 8 25 31 26 7 27 4 28 6 29 5 30 3 31 2 32 1 33
REMARK H PARENT 20 21 20 22
REMARK Flexibility Score: inf
ROOT
ATOM      1  C   UNL     1      -5.009   1.112   0.753  1.00  0.00     0.117 C 
ATOM      2  C   UNL     1      -3.882   1.788   1.546  1.00  0.00     0.033 C 
ATOM      3  C   UNL     1      -2.521   1.503   0.921  1.00  0.00     0.015 C 
ATOM      4  C   UNL     1      -2.157  -0.025   0.980  1.00  0.00     0.025 C 
ATOM      5  C   UNL     1      -1.339  -0.297   2.288  1.00  0.00     0.048 C 
ATOM      6  C   UNL     1       0.058   0.043   1.864  1.00  0.00    -0.040 A 
ATOM      7  C   UNL     1       1.144   0.349   2.663  1.00  0.00     0.005 A 
ATOM      8  C   UNL     1       2.367   0.624   2.041  1.00  0.00     0.009 A 
ATOM      9  C   UNL     1       2.513   0.585   0.635  1.00  0.00    -0.016 A 
ATOM     10  C   UNL     1       1.391   0.256  -0.148  1.00  0.00     0.017 A 
ATOM     11  C   UNL     1       0.177  -0.008   0.473  1.00  0.00     0.006 A 
ATOM     12  C   UNL     1      -1.132  -0.428  -0.158  1.00  0.00     0.184 C 
ATOM     13  N   UNL     1      -1.120  -1.902  -0.373  1.00  0.00    -0.251 NA
ATOM     14  C   UNL     1      -1.352  -2.011  -1.638  1.00  0.00     0.077 C 
ATOM     15  C   UNL     1      -1.449  -3.280  -2.400  1.00  0.00     0.070 C 
ATOM     16  C   UNL     1      -1.532  -0.688  -2.297  1.00  0.00     0.142 C 
ATOM     17  N   UNL     1      -1.781  -0.504  -3.622  1.00  0.00    -0.382 N 
ATOM     18  N   UNL     1      -1.415   0.266  -1.438  1.00  0.00    -0.232 NA
ATOM     19  C   UNL     1      -3.458  -0.876   1.011  1.00  0.00     0.015 C 
ATOM     20  C   UNL     1      -4.583  -0.253   0.186  1.00  0.00     0.033 C 
ATOM     21  H   UNL     1      -1.373  -1.172  -4.265  1.00  0.00     0.158 HD
ATOM     22  H   UNL     1      -1.637   0.459  -3.911  1.00  0.00     0.158 HD
ENDROOT
BRANCH   1  23
ATOM     23  O   UNL     1      -6.116   0.965   1.651  1.00  0.00    -0.381 OA
ATOM     24  C   UNL     1      -7.373   0.940   0.987  1.00  0.00     0.195 C 
ENDBRANCH   1  23
BRANCH   9  25
ATOM     25  C   UNL     1       3.808   0.876   0.003  1.00  0.00     0.001 A 
ATOM     26  C   UNL     1       4.988   0.234   0.404  1.00  0.00     0.029 A 
ATOM     27  C   UNL     1       3.929   1.805  -1.034  1.00  0.00     0.119 A 
ATOM     28  C   UNL     1       6.200   0.531  -0.221  1.00  0.00     0.043 A 
ATOM     29  N   UNL     1       5.086   2.117  -1.668  1.00  0.00    -0.263 NA
ATOM     30  C   UNL     1       6.196   1.470  -1.242  1.00  0.00     0.128 A 
BRANCH  28  31
ATOM     31  C   UNL     1       7.408  -0.118   0.178  1.00  0.00    -0.066 C 
ATOM     32  C   UNL     1       8.423  -0.665   0.516  1.00  0.00    -0.101 C 
ATOM     33  C   UNL     1       9.658  -1.332   0.927  1.00  0.00     0.107 C 
ENDBRANCH  28  31
ENDBRANCH   9  25
TORSDOF 3
