REMARK SMILES CC1=CC(=O)N2CC(=O)N(C)c3ccc(Cl)cc3C2(c2ccccc2)O1
REMARK SMILES IDX 12 1 13 2 14 3 15 4 16 5 17 6 18 7 19 8 1 9 2 10 3 11 26 12
REMARK SMILES IDX 4 13 5 14 6 15 20 16 21 17 25 18 22 19 24 20 23 21 7 22
REMARK SMILES IDX 10 24 11 25 8 26 9 27
REMARK H PARENT
REMARK Flexibility Score: 90.00
ROOT
ATOM      1  C   UNL     1      -1.969  -0.991   0.639  1.00  0.00     0.053 A 
ATOM      2  C   UNL     1      -2.674  -1.661   1.668  1.00  0.00     0.028 A 
ATOM      3  C   UNL     1      -2.047  -2.107   2.831  1.00  0.00     0.022 A 
ATOM      4  C   UNL     1      -0.695  -1.881   2.994  1.00  0.00     0.041 A 
ATOM      5  Cl  UNL     1       0.098  -2.417   4.422  1.00  0.00    -0.084 Cl
ATOM      6  C   UNL     1       0.022  -1.204   2.010  1.00  0.00     0.033 A 
ATOM      7  C   UNL     1      -0.583  -0.739   0.807  1.00  0.00     0.047 A 
ENDROOT
BRANCH   7   8
ATOM      8  C   UNL     1       0.248   0.162  -0.149  1.00  0.00     0.240 C 
ATOM      9  C   UNL     1       0.290   3.875   0.045  1.00  0.00     0.087 C 
ATOM     10  C   UNL     1       0.218   2.525  -0.593  1.00  0.00     0.102 C 
ATOM     11  C   UNL     1       0.470   2.320  -1.890  1.00  0.00     0.113 C 
ATOM     12  O   UNL     1      -0.117   1.504   0.273  1.00  0.00    -0.464 OA
ATOM     13  C   UNL     1       0.208   0.993  -2.464  1.00  0.00     0.254 C 
ATOM     14  O   UNL     1       0.182   0.858  -3.682  1.00  0.00    -0.269 OA
ATOM     15  N   UNL     1      -0.079   0.001  -1.560  1.00  0.00    -0.284 N 
BRANCH   8  16
ATOM     16  C   UNL     1       1.789  -0.051   0.024  1.00  0.00     0.022 A 
ATOM     17  C   UNL     1       2.450  -1.111  -0.629  1.00  0.00     0.010 A 
ATOM     18  C   UNL     1       2.560   0.779   0.865  1.00  0.00     0.010 A 
ATOM     19  C   UNL     1       3.822  -1.319  -0.462  1.00  0.00     0.001 A 
ATOM     20  C   UNL     1       3.931   0.568   1.030  1.00  0.00     0.001 A 
ATOM     21  C   UNL     1       4.561  -0.479   0.365  1.00  0.00     0.000 A 
ENDBRANCH   8  16
BRANCH  15  22
ATOM     22  C   UNL     1      -0.786  -1.176  -2.019  1.00  0.00     0.225 CG0
ATOM     23  G   UNL     1      -2.260  -0.870  -1.833  1.00  0.00     0.000 G0
ENDBRANCH  15  22
ENDBRANCH   7   8
BRANCH   1  24
ATOM     24  N   UNL     1      -2.713  -0.634  -0.531  1.00  0.00    -0.313 N 
ATOM     25  C   UNL     1      -4.136  -0.342  -0.406  1.00  0.00     0.153 C 
BRANCH  24  26
ATOM     26  C   UNL     1      -2.260  -0.870  -1.833  1.00  0.00     0.246 CG0
ATOM     27  O   UNL     1      -3.027  -0.882  -2.801  1.00  0.00    -0.272 OA
ATOM     28  G   UNL     1      -0.786  -1.176  -2.019  1.00  0.00     0.000 G0
ENDBRANCH  24  26
ENDBRANCH   1  24
TORSDOF 1
