REMARK SMILES CC1(C)S[C@@H]2[C@H](/N=C/N3CCCCCC3)C(=O)N2[C@H]1C(=O)O
REMARK SMILES IDX 7 1 8 2 9 3 6 4 1 5 2 6 3 7 4 8 19 9 5 10 18 11 16 12 17 13
REMARK SMILES IDX 20 14 21 15 22 16 10 18 11 19 12 20 15 22 14 23 13 24
REMARK H PARENT 22 17
REMARK Flexibility Score: 90.00
ROOT
ATOM      1  N   UNL     1      -0.501   0.088   0.564  1.00  0.00    -0.259 NA
ATOM      2  C   UNL     1      -1.399   0.619  -0.195  1.00  0.00     0.190 C 
ATOM      3  N   UNL     1      -2.371  -0.060  -0.888  1.00  0.00    -0.363 N 
ENDROOT
BRANCH   1   4
ATOM      4  C   UNL     1       0.419   1.060   1.174  1.00  0.00     0.229 C 
ATOM      5  C   UNL     1       4.867  -0.551   1.673  1.00  0.00     0.026 C 
ATOM      6  C   UNL     1       3.875  -0.595   0.502  1.00  0.00     0.044 C 
ATOM      7  C   UNL     1       4.378  -1.554  -0.579  1.00  0.00     0.026 C 
ATOM      8  S   UNL     1       2.256  -1.227   1.145  1.00  0.00    -0.125 SA
ATOM      9  C   UNL     1       3.509   0.784  -0.073  1.00  0.00     0.211 C 
ATOM     10  C   UNL     1       1.748   0.451   1.687  1.00  0.00     0.179 C 
ATOM     11  N   UNL     1       2.475   1.364   0.781  1.00  0.00    -0.311 N 
ATOM     12  C   UNL     1       1.336   1.841   0.190  1.00  0.00     0.252 C 
ATOM     13  O   UNL     1       1.198   2.533  -0.793  1.00  0.00    -0.272 OA
BRANCH   9  14
ATOM     14  C   UNL     1       4.693   1.735  -0.182  1.00  0.00     0.327 C 
ATOM     15  O   UNL     1       5.044   2.579   0.628  1.00  0.00    -0.250 OA
BRANCH  14  16
ATOM     16  O   UNL     1       5.419   1.538  -1.303  1.00  0.00    -0.480 OA
ATOM     17  H   UNL     1       6.115   2.228  -1.258  1.00  0.00     0.296 HD
ENDBRANCH  14  16
ENDBRANCH   9  14
ENDBRANCH   1   4
BRANCH   3  18
ATOM     18  C   UNL     1      -3.450   0.655  -1.563  1.00  0.00     0.117 C 
BRANCH  18  19
ATOM     19  C   UNL     1      -4.546   1.011  -0.564  1.00  0.00     0.021 C 
BRANCH  19  20
ATOM     20  C   UNL     1      -5.536  -0.112  -0.243  1.00  0.00     0.002 CG0
ATOM     21  G   UNL     1      -5.045  -1.558  -0.316  1.00  0.00     0.000 G0
ENDBRANCH  19  20
ENDBRANCH  18  19
ENDBRANCH   3  18
BRANCH   3  22
ATOM     22  C   UNL     1      -2.536  -1.499  -0.723  1.00  0.00     0.117 C 
BRANCH  22  23
ATOM     23  C   UNL     1      -3.656  -1.820   0.267  1.00  0.00     0.021 C 
BRANCH  23  24
ATOM     24  C   UNL     1      -5.045  -1.558  -0.316  1.00  0.00     0.002 CG0
ATOM     25  G   UNL     1      -5.536  -0.112  -0.243  1.00  0.00     0.000 G0
ENDBRANCH  23  24
ENDBRANCH  22  23
ENDBRANCH   3  22
TORSDOF 3
