REMARK SMILES N[C@@H](C(=O)N[C@@H]1C(=O)N2C(C(=O)O)=C(Cl)CS[C@H]12)c1ccccc1
REMARK SMILES IDX 6 1 7 2 8 3 9 4 10 5 14 6 15 7 16 8 17 9 18 10 5 11 3 12
REMARK SMILES IDX 4 13 2 15 1 16 19 19 20 20 24 21 21 22 23 23 22 24 11 25
REMARK SMILES IDX 12 26 13 27
REMARK H PARENT 5 14 1 17 1 18 13 28
REMARK Flexibility Score: inf
ROOT
ATOM      1  C   UNL     1       0.972  -2.085  -0.310  1.00  0.00     0.205 C 
ATOM      2  C   UNL     1       2.190  -1.964   0.653  1.00  0.00     0.253 C 
ATOM      3  O   UNL     1       2.452  -2.317   1.778  1.00  0.00    -0.272 OA
ATOM      4  N   UNL     1       2.832  -1.165  -0.232  1.00  0.00    -0.288 N 
ATOM      5  C   UNL     1       3.817  -0.239  -0.038  1.00  0.00     0.146 C 
ATOM      6  C   UNL     1       3.857   0.912  -0.735  1.00  0.00     0.059 C 
ATOM      7  Cl  UNL     1       5.171   2.042  -0.604  1.00  0.00    -0.086 Cl
ATOM      8  C   UNL     1       2.764   1.367  -1.666  1.00  0.00     0.122 C 
ATOM      9  S   UNL     1       1.141   0.672  -1.201  1.00  0.00    -0.128 SA
ATOM     10  C   UNL     1       1.743  -1.047  -1.186  1.00  0.00     0.181 C 
ENDROOT
BRANCH   1  11
ATOM     11  N   UNL     1      -0.344  -1.689   0.257  1.00  0.00    -0.340 N 
ATOM     12  C   UNL     1      -1.476  -1.672  -0.533  1.00  0.00     0.242 C 
ATOM     13  O   UNL     1      -1.439  -1.990  -1.723  1.00  0.00    -0.273 OA
ATOM     14  H   UNL     1      -0.402  -1.327   1.203  1.00  0.00     0.164 HD
BRANCH  12  15
ATOM     15  C   UNL     1      -2.768  -1.204   0.189  1.00  0.00     0.172 C 
BRANCH  15  16
ATOM     16  N   UNL     1      -3.936  -1.892  -0.387  1.00  0.00    -0.316 NA
ATOM     17  H   UNL     1      -4.778  -1.378  -0.133  1.00  0.00     0.119 HD
ATOM     18  H   UNL     1      -3.860  -1.826  -1.405  1.00  0.00     0.119 HD
ENDBRANCH  15  16
BRANCH  15  19
ATOM     19  C   UNL     1      -2.936   0.302   0.133  1.00  0.00    -0.022 A 
ATOM     20  C   UNL     1      -2.832   1.010  -1.075  1.00  0.00     0.006 A 
ATOM     21  C   UNL     1      -3.238   1.015   1.305  1.00  0.00     0.006 A 
ATOM     22  C   UNL     1      -3.002   2.395  -1.106  1.00  0.00     0.000 A 
ATOM     23  C   UNL     1      -3.409   2.401   1.271  1.00  0.00     0.000 A 
ATOM     24  C   UNL     1      -3.288   3.090   0.066  1.00  0.00     0.000 A 
ENDBRANCH  15  19
ENDBRANCH  12  15
ENDBRANCH   1  11
BRANCH   5  25
ATOM     25  C   UNL     1       4.859  -0.571   0.961  1.00  0.00     0.353 C 
ATOM     26  O   UNL     1       5.640  -1.502   0.887  1.00  0.00    -0.245 OA
BRANCH  25  27
ATOM     27  O   UNL     1       4.817   0.253   2.023  1.00  0.00    -0.477 OA
ATOM     28  H   UNL     1       5.491  -0.115   2.631  1.00  0.00     0.297 HD
ENDBRANCH  25  27
ENDBRANCH   5  25
TORSDOF 6
