REMARK SMILES CCc1cc(C(N)=S)ccn1
REMARK SMILES IDX 3 1 4 2 5 3 9 4 10 5 11 6 2 7 1 8 6 9 8 10 7 11
REMARK H PARENT 7 12 7 13
REMARK Flexibility Score: inf
ROOT
ATOM      1  C   UNL     1       0.982   0.114   0.500  1.00  0.00     0.041 A 
ATOM      2  C   UNL     1      -0.222  -0.507   0.190  1.00  0.00     0.035 A 
ATOM      3  C   UNL     1      -1.414   0.164   0.476  1.00  0.00     0.012 A 
ATOM      4  C   UNL     1      -1.369   1.428   1.062  1.00  0.00     0.031 A 
ATOM      5  C   UNL     1      -0.127   1.971   1.327  1.00  0.00     0.112 A 
ATOM      6  N   UNL     1       1.040   1.349   1.053  1.00  0.00    -0.261 NA
ENDROOT
BRANCH   1   7
ATOM      7  C   UNL     1       2.294  -0.563   0.202  1.00  0.00     0.053 C 
ATOM      8  C   UNL     1       2.751  -0.295  -1.223  1.00  0.00     0.010 C 
ENDBRANCH   1   7
BRANCH   3   9
ATOM      9  C   UNL     1      -2.711  -0.477   0.147  1.00  0.00     0.104 C 
ATOM     10  S   UNL     1      -4.057  -0.485   1.135  1.00  0.00    -0.060 S 
BRANCH   9  11
ATOM     11  N   UNL     1      -2.782  -1.100  -1.072  1.00  0.00    -0.389 N 
ATOM     12  H   UNL     1      -3.671  -1.493  -1.361  1.00  0.00     0.157 HD
ATOM     13  H   UNL     1      -2.058  -1.023  -1.776  1.00  0.00     0.157 HD
ENDBRANCH   9  11
ENDBRANCH   3   9
TORSDOF 3
