REMARK SMILES CCc1c(C)[nH]c2c1C(=O)C(CN1CCOCC1)CC2
REMARK SMILES IDX 3 1 4 2 5 3 6 4 7 5 8 6 9 7 10 8 11 9 19 10 20 11 2 13 1 14
REMARK SMILES IDX 12 15 13 16 14 17 18 18 15 19 17 20 16 21
REMARK H PARENT 6 12
REMARK Flexibility Score: inf
ROOT
ATOM      1  C   UNL     1      -3.292  -0.003  -0.597  1.00  0.00    -0.017 A 
ATOM      2  C   UNL     1      -3.942   1.215  -0.433  1.00  0.00     0.016 A 
ATOM      3  C   UNL     1      -5.387   1.554  -0.508  1.00  0.00     0.064 C 
ATOM      4  N   UNL     1      -2.994   2.175  -0.166  1.00  0.00    -0.362 N 
ATOM      5  C   UNL     1      -1.759   1.595  -0.147  1.00  0.00     0.026 A 
ATOM      6  C   UNL     1      -1.898   0.248  -0.415  1.00  0.00     0.042 A 
ATOM      7  C   UNL     1      -0.733  -0.636  -0.457  1.00  0.00     0.169 C 
ATOM      8  O   UNL     1      -0.841  -1.845  -0.652  1.00  0.00    -0.294 OA
ATOM      9  C   UNL     1       0.641   0.052  -0.317  1.00  0.00     0.076 C 
ATOM     10  C   UNL     1       0.559   1.295   0.604  1.00  0.00     0.019 C 
ATOM     11  C   UNL     1      -0.487   2.311   0.123  1.00  0.00     0.055 C 
ATOM     12  H   UNL     1      -3.188   3.155  -0.002  1.00  0.00     0.166 HD
ENDROOT
BRANCH   1  13
ATOM     13  C   UNL     1      -3.931  -1.323  -0.905  1.00  0.00     0.035 C 
ATOM     14  C   UNL     1      -4.206  -2.139   0.349  1.00  0.00     0.009 C 
ENDBRANCH   1  13
BRANCH   9  15
ATOM     15  C   UNL     1       1.665  -0.975   0.203  1.00  0.00     0.096 C 
BRANCH  15  16
ATOM     16  N   UNL     1       3.025  -0.431   0.397  1.00  0.00    -0.298 NA
ATOM     17  C   UNL     1       3.687  -0.124  -0.891  1.00  0.00     0.113 C 
ATOM     18  C   UNL     1       3.862  -1.411   1.128  1.00  0.00     0.113 C 
ATOM     19  C   UNL     1       5.135   0.350  -0.679  1.00  0.00     0.175 C 
ATOM     20  C   UNL     1       5.303  -0.905   1.297  1.00  0.00     0.175 C 
ATOM     21  O   UNL     1       5.907  -0.630   0.026  1.00  0.00    -0.379 OA
ENDBRANCH  15  16
ENDBRANCH   9  15
TORSDOF 3
