REMARK SMILES Oc1c(I)cc(Cl)c2cccnc12
REMARK SMILES IDX 2 1 3 2 4 3 5 4 6 5 7 6 8 7 9 8 10 9 11 10 12 11 13 12 1 13
REMARK H PARENT 1 14
REMARK Flexibility Score: inf
ROOT
ATOM      1  C   UNL     1       1.438  -0.868   0.150  1.00  0.00     0.155 A 
ATOM      2  C   UNL     1       2.370   0.166   0.071  1.00  0.00     0.059 A 
ATOM      3  I   UNL     1       4.425  -0.181   0.187  1.00  0.00    -0.040 I 
ATOM      4  C   UNL     1       1.927   1.474  -0.089  1.00  0.00     0.040 A 
ATOM      5  C   UNL     1       0.556   1.733  -0.169  1.00  0.00     0.051 A 
ATOM      6  Cl  UNL     1       0.078   3.386  -0.369  1.00  0.00    -0.084 Cl
ATOM      7  C   UNL     1      -0.397   0.686  -0.090  1.00  0.00     0.023 A 
ATOM      8  C   UNL     1      -1.797   0.859  -0.162  1.00  0.00     0.013 A 
ATOM      9  C   UNL     1      -2.652  -0.234  -0.075  1.00  0.00     0.021 A 
ATOM     10  C   UNL     1      -2.090  -1.483   0.084  1.00  0.00     0.112 A 
ATOM     11  N   UNL     1      -0.760  -1.702   0.158  1.00  0.00    -0.252 NA
ATOM     12  C   UNL     1       0.066  -0.636   0.072  1.00  0.00     0.114 A 
ENDROOT
BRANCH   1  13
ATOM     13  O   UNL     1       1.853  -2.173   0.309  1.00  0.00    -0.505 OA
ATOM     14  H   UNL     1       1.020  -2.693   0.334  1.00  0.00     0.293 HD
ENDBRANCH   1  13
TORSDOF 1
