REMARK SMILES C[C@@]1(C(=O)Nc2ccc(F)nc2)CCCN1c1nc(Nc2cc(C3CC3)[nH]n2)c2cccn2n1
REMARK SMILES IDX 1 1 2 2 13 3 14 4 15 5 16 6 3 7 4 8 5 9 6 11 12 12 7 13
REMARK SMILES IDX 11 14 8 15 9 16 10 17 17 18 34 19 18 20 33 21 19 22 32 23
REMARK SMILES IDX 29 24 20 25 31 26 30 27 21 29 28 30 22 31 27 32 23 33 24 35
REMARK SMILES IDX 25 36 26 37
REMARK H PARENT 5 10 20 28 27 34
REMARK Flexibility Score: inf
ROOT
ATOM      1  C   UNL     1       2.528   0.266  -2.124  1.00  0.00     0.045 C 
ATOM      2  C   UNL     1       2.145   0.659  -0.690  1.00  0.00     0.119 C 
ATOM      3  C   UNL     1       2.554   2.125  -0.439  1.00  0.00     0.040 C 
ATOM      4  C   UNL     1       1.514   2.616   0.555  1.00  0.00     0.024 C 
ATOM      5  C   UNL     1       0.235   1.919   0.108  1.00  0.00     0.121 C 
ATOM      6  N   UNL     1       0.676   0.698  -0.553  1.00  0.00    -0.325 N 
ENDROOT
BRANCH   2   7
ATOM      7  C   UNL     1       2.786  -0.242   0.426  1.00  0.00     0.250 C 
ATOM      8  O   UNL     1       2.247  -0.382   1.525  1.00  0.00    -0.272 OA
ATOM      9  N   UNL     1       4.043  -0.746   0.119  1.00  0.00    -0.323 N 
ATOM     10  H   UNL     1       4.402  -0.580  -0.810  1.00  0.00     0.170 HD
BRANCH   9  11
ATOM     11  C   UNL     1       4.864  -1.534   0.955  1.00  0.00     0.060 A 
ATOM     12  C   UNL     1       4.562  -1.921   2.260  1.00  0.00     0.140 A 
ATOM     13  C   UNL     1       6.089  -1.961   0.434  1.00  0.00     0.032 A 
ATOM     14  N   UNL     1       5.381  -2.670   3.044  1.00  0.00    -0.226 NA
ATOM     15  C   UNL     1       6.945  -2.734   1.217  1.00  0.00     0.062 A 
ATOM     16  C   UNL     1       6.549  -3.057   2.502  1.00  0.00     0.212 A 
ATOM     17  F   UNL     1       7.372  -3.799   3.256  1.00  0.00    -0.185 F 
ENDBRANCH   9  11
ENDBRANCH   2   7
BRANCH   6  18
ATOM     18  C   UNL     1      -0.136  -0.411  -0.663  1.00  0.00     0.246 C 
ATOM     19  N   UNL     1       0.400  -1.566  -0.944  1.00  0.00    -0.129 NA
ATOM     20  N   UNL     1      -1.485  -0.209  -0.494  1.00  0.00    -0.192 NA
ATOM     21  N   UNL     1      -0.460  -2.583  -1.019  1.00  0.00    -0.234 N 
ATOM     22  C   UNL     1      -2.345  -1.177  -0.591  1.00  0.00     0.161 C 
ATOM     23  C   UNL     1      -0.132  -3.888  -1.271  1.00  0.00     0.114 A 
ATOM     24  C   UNL     1      -1.805  -2.479  -0.860  1.00  0.00     0.108 A 
ATOM     25  N   UNL     1      -3.711  -1.016  -0.465  1.00  0.00    -0.322 N 
ATOM     26  C   UNL     1      -1.292  -4.633  -1.266  1.00  0.00     0.022 A 
ATOM     27  C   UNL     1      -2.359  -3.737  -1.004  1.00  0.00     0.034 A 
ATOM     28  H   UNL     1      -4.279  -1.802  -0.746  1.00  0.00     0.170 HD
BRANCH  25  29
ATOM     29  C   UNL     1      -4.364   0.163  -0.420  1.00  0.00     0.153 A 
ATOM     30  N   UNL     1      -5.657   0.252  -0.761  1.00  0.00    -0.158 NA
ATOM     31  C   UNL     1      -3.865   1.418   0.003  1.00  0.00     0.072 A 
ATOM     32  N   UNL     1      -5.953   1.553  -0.612  1.00  0.00    -0.280 N 
ATOM     33  C   UNL     1      -4.913   2.290  -0.142  1.00  0.00     0.040 A 
ATOM     34  H   UNL     1      -6.889   1.866  -0.842  1.00  0.00     0.190 HD
BRANCH  33  35
ATOM     35  C   UNL     1      -4.888   3.803   0.154  1.00  0.00     0.038 C 
ATOM     36  C   UNL     1      -6.138   4.514   0.598  1.00  0.00     0.010 C 
ATOM     37  C   UNL     1      -5.039   4.245   1.583  1.00  0.00     0.010 C 
ENDBRANCH  33  35
ENDBRANCH  25  29
ENDBRANCH   6  18
TORSDOF 5
