REMARK SMILES C=CC1=C(C(=O)O)N2C(=O)[C@@H](NC(=O)/C(=N\OCC(=O)O)c3csc(N)n3)[C@H]2SC1
REMARK SMILES IDX 15 1 16 2 13 3 12 4 14 6 11 7 3 8 4 9 30 10 8 11 29 12 9 13
REMARK SMILES IDX 28 14 10 15 2 16 1 17 5 18 6 19 7 20 22 22 23 23 27 24 24 25
REMARK SMILES IDX 25 26 26 27 17 30 18 31 19 32 20 33 21 34
REMARK H PARENT 12 5 7 21 26 28 26 29 21 35
REMARK Flexibility Score: inf
ROOT
ATOM      1  C   UNL     1      -2.921  -1.173   0.222  1.00  0.00     0.193 C 
ATOM      2  N   UNL     1      -3.070  -0.088  -0.491  1.00  0.00    -0.078 NA
ENDROOT
BRANCH   1   3
ATOM      3  C   UNL     1      -1.539  -1.757   0.558  1.00  0.00     0.276 C 
ATOM      4  N   UNL     1      -0.631  -0.856   1.079  1.00  0.00    -0.336 N 
ATOM      5  H   UNL     1      -0.857   0.134   0.975  1.00  0.00     0.164 HD
ATOM      6  O   UNL     1      -1.310  -2.949   0.403  1.00  0.00    -0.267 OA
BRANCH   4   7
ATOM      7  C   UNL     1       0.760  -1.255   1.415  1.00  0.00     0.206 C 
ATOM      8  C   UNL     1       3.808   0.506  -0.905  1.00  0.00    -0.007 C 
ATOM      9  C   UNL     1       3.415   0.629   0.387  1.00  0.00     0.135 C 
ATOM     10  C   UNL     1       3.076  -0.407  -1.883  1.00  0.00     0.109 C 
ATOM     11  N   UNL     1       2.423  -0.134   0.911  1.00  0.00    -0.289 N 
ATOM     12  S   UNL     1       1.369  -0.830  -1.400  1.00  0.00    -0.129 SA
ATOM     13  C   UNL     1       1.650  -0.109   2.012  1.00  0.00     0.253 C 
ATOM     14  C   UNL     1       1.834  -1.291   0.283  1.00  0.00     0.181 C 
ATOM     15  O   UNL     1       1.645   0.591   2.998  1.00  0.00    -0.272 OA
BRANCH   8  16
ATOM     16  C   UNL     1       4.955   1.254  -1.441  1.00  0.00    -0.001 C 
ATOM     17  C   UNL     1       5.491   1.141  -2.665  1.00  0.00     0.009 C 
ENDBRANCH   8  16
BRANCH   9  18
ATOM     18  C   UNL     1       4.047   1.597   1.319  1.00  0.00     0.352 C 
ATOM     19  O   UNL     1       4.846   1.322   2.196  1.00  0.00    -0.245 OA
BRANCH  18  20
ATOM     20  O   UNL     1       3.626   2.855   1.091  1.00  0.00    -0.477 OA
ATOM     21  H   UNL     1       4.012   3.358   1.839  1.00  0.00     0.297 HD
ENDBRANCH  18  20
ENDBRANCH   9  18
ENDBRANCH   4   7
ENDBRANCH   1   3
BRANCH   1  22
ATOM     22  C   UNL     1      -4.141  -1.805   0.736  1.00  0.00     0.111 A 
ATOM     23  C   UNL     1      -4.193  -2.985   1.461  1.00  0.00     0.099 A 
ATOM     24  N   UNL     1      -5.396  -1.221   0.532  1.00  0.00    -0.218 NA
ATOM     25  S   UNL     1      -5.815  -3.371   1.864  1.00  0.00    -0.105 S 
ATOM     26  C   UNL     1      -6.342  -1.946   1.074  1.00  0.00     0.180 A 
BRANCH  26  27
ATOM     27  N   UNL     1      -7.645  -1.617   1.004  1.00  0.00    -0.375 N 
ATOM     28  H   UNL     1      -7.852  -0.948   0.270  1.00  0.00     0.159 HD
ATOM     29  H   UNL     1      -8.298  -2.394   1.013  1.00  0.00     0.159 HD
ENDBRANCH  26  27
ENDBRANCH   1  22
BRANCH   2  30
ATOM     30  O   UNL     1      -1.843   0.413  -0.942  1.00  0.00    -0.383 OA
BRANCH  30  31
ATOM     31  C   UNL     1      -2.002   1.753  -1.414  1.00  0.00     0.385 C 
BRANCH  31  32
ATOM     32  C   UNL     1      -0.861   2.552  -0.817  1.00  0.00     0.344 C 
ATOM     33  O   UNL     1      -0.109   2.200   0.085  1.00  0.00    -0.248 OA
BRANCH  32  34
ATOM     34  O   UNL     1      -0.721   3.773  -1.382  1.00  0.00    -0.479 OA
ATOM     35  H   UNL     1       0.060   4.167  -0.926  1.00  0.00     0.296 HD
ENDBRANCH  32  34
ENDBRANCH  31  32
ENDBRANCH  30  31
ENDBRANCH   2  30
TORSDOF 11
