REMARK SMILES CC(=O)/N=c1/sc(S(N)(=O)=O)nn1C
REMARK SMILES IDX 4 1 5 2 6 3 7 4 12 5 13 6 14 7 2 8 1 9 3 10 8 11 10 12 11 13
REMARK SMILES IDX 9 14
REMARK H PARENT 9 15 9 16
REMARK Flexibility Score: inf
ROOT
ATOM      1  N   UNL     1      -1.757   0.630  -0.999  1.00  0.00    -0.184 NA
ATOM      2  C   UNL     1      -0.604   0.195  -0.646  1.00  0.00     0.211 C 
ATOM      3  S   UNL     1       0.753   1.165  -1.252  1.00  0.00    -0.062 SA
ATOM      4  C   UNL     1       1.841   0.034  -0.462  1.00  0.00     0.247 C 
ATOM      5  N   UNL     1       1.292  -0.943   0.202  1.00  0.00    -0.146 NA
ATOM      6  N   UNL     1      -0.081  -0.834   0.115  1.00  0.00    -0.240 N 
ATOM      7  C   UNL     1      -0.827  -1.915   0.730  1.00  0.00     0.177 C 
ENDROOT
BRANCH   1   8
ATOM      8  C   UNL     1      -2.883  -0.041  -0.627  1.00  0.00     0.245 C 
ATOM      9  C   UNL     1      -3.914   0.837   0.029  1.00  0.00     0.117 C 
ATOM     10  O   UNL     1      -3.095  -1.229  -0.844  1.00  0.00    -0.273 OA
ENDBRANCH   1   8
BRANCH   4  11
ATOM     11  S   UNL     1       3.609   0.195  -0.562  1.00  0.00     0.267 S 
ATOM     12  O   UNL     1       4.010  -0.241  -1.882  1.00  0.00    -0.205 OA
ATOM     13  O   UNL     1       4.195  -0.350   0.644  1.00  0.00    -0.205 OA
BRANCH  11  14
ATOM     14  N   UNL     1       3.988   1.849  -0.512  1.00  0.00    -0.223 NA
ATOM     15  H   UNL     1       4.384   2.124  -1.414  1.00  0.00     0.137 HD
ATOM     16  H   UNL     1       4.644   2.010   0.255  1.00  0.00     0.137 HD
ENDBRANCH  11  14
ENDBRANCH   4  11
TORSDOF 3
