REMARK SMILES C[C@H]1Cc2c(nnn2-c2ncc(F)cn2)CN1C(=O)c1ccnc(C(F)(F)F)c1F
REMARK SMILES IDX 18 1 19 2 17 3 1 4 2 5 3 6 4 7 16 8 5 9 8 10 6 11 7 12 9 13
REMARK SMILES IDX 10 14 15 15 11 16 14 17 12 18 13 19 20 20 21 21 29 22 22 23
REMARK SMILES IDX 24 24 30 25 23 26 25 27 26 28 27 29 28 30
REMARK H PARENT
REMARK Flexibility Score: inf
ROOT
ATOM      1  C   UNL     1      -2.147   0.269  -1.672  1.00  0.00     0.257 C 
ATOM      2  O   UNL     1      -2.636   0.179  -2.794  1.00  0.00    -0.269 OA
ENDROOT
BRANCH   1   3
ATOM      3  N   UNL     1      -0.847  -0.120  -1.349  1.00  0.00    -0.329 N 
ATOM      4  C   UNL     1      -0.670  -1.802   0.481  1.00  0.00     0.031 C 
ATOM      5  C   UNL     1      -0.379  -0.357   0.054  1.00  0.00     0.088 C 
ATOM      6  C   UNL     1       1.123   0.008   0.257  1.00  0.00     0.083 C 
ATOM      7  C   UNL     1       1.901  -0.430  -0.921  1.00  0.00     0.075 A 
ATOM      8  C   UNL     1      -0.092  -0.757  -2.455  1.00  0.00     0.180 C 
ATOM      9  C   UNL     1       1.355  -0.765  -2.137  1.00  0.00     0.106 A 
ATOM     10  N   UNL     1       3.263  -0.559  -1.091  1.00  0.00    -0.182 N 
ATOM     11  N   UNL     1       2.342  -1.123  -2.999  1.00  0.00    -0.133 NA
ATOM     12  N   UNL     1       3.502  -1.004  -2.359  1.00  0.00    -0.059 NA
BRANCH  10  13
ATOM     13  C   UNL     1       4.322  -0.287  -0.166  1.00  0.00     0.252 A 
ATOM     14  N   UNL     1       5.597  -0.507  -0.570  1.00  0.00    -0.217 NA
ATOM     15  N   UNL     1       3.993   0.182   1.065  1.00  0.00    -0.217 NA
ATOM     16  C   UNL     1       6.578  -0.239   0.319  1.00  0.00     0.156 A 
ATOM     17  C   UNL     1       5.019   0.432   1.911  1.00  0.00     0.156 A 
ATOM     18  C   UNL     1       6.337   0.236   1.582  1.00  0.00     0.159 A 
ATOM     19  F   UNL     1       7.325   0.495   2.444  1.00  0.00    -0.204 F 
ENDBRANCH  10  13
ENDBRANCH   1   3
BRANCH   1  20
ATOM     20  C   UNL     1      -2.977   0.887  -0.634  1.00  0.00     0.079 A 
ATOM     21  C   UNL     1      -2.768   2.224  -0.299  1.00  0.00     0.037 A 
ATOM     22  C   UNL     1      -3.994   0.154  -0.040  1.00  0.00     0.166 A 
ATOM     23  C   UNL     1      -3.593   2.772   0.662  1.00  0.00     0.113 A 
ATOM     24  C   UNL     1      -4.779   0.774   0.917  1.00  0.00     0.181 A 
ATOM     25  F   UNL     1      -4.191  -1.133  -0.358  1.00  0.00    -0.204 F 
ATOM     26  N   UNL     1      -4.577   2.081   1.281  1.00  0.00    -0.249 NA
BRANCH  24  27
ATOM     27  C   UNL     1      -5.870  -0.044   1.576  1.00  0.00     0.436 C 
ATOM     28  F   UNL     1      -6.596   0.649   2.500  1.00  0.00    -0.164 F 
ATOM     29  F   UNL     1      -5.378  -1.130   2.242  1.00  0.00    -0.164 F 
ATOM     30  F   UNL     1      -6.781  -0.532   0.687  1.00  0.00    -0.164 F 
ENDBRANCH  24  27
ENDBRANCH   1  20
TORSDOF 4
