REMARK SMILES CC(C(=O)O)c1ccc(N2Cc3ccccc3C2=O)cc1
REMARK SMILES IDX 1 1 2 2 3 3 4 4 5 5 6 7 7 8 21 9 8 10 20 11 9 12 10 13 11 14
REMARK SMILES IDX 18 15 12 16 17 17 19 18 13 19 16 20 14 21 15 22
REMARK H PARENT 5 6
REMARK Flexibility Score: inf
ROOT
ATOM      1  C   UNL     1      -4.988  -0.906   0.429  1.00  0.00     0.025 C 
ATOM      2  C   UNL     1      -4.313   0.361  -0.094  1.00  0.00     0.126 C 
ENDROOT
BRANCH   2   3
ATOM      3  C   UNL     1      -4.800   1.557   0.707  1.00  0.00     0.310 C 
ATOM      4  O   UNL     1      -4.283   2.071   1.685  1.00  0.00    -0.252 OA
BRANCH   3   5
ATOM      5  O   UNL     1      -5.980   2.031   0.249  1.00  0.00    -0.481 OA
ATOM      6  H   UNL     1      -6.177   2.782   0.848  1.00  0.00     0.296 HD
ENDBRANCH   3   5
ENDBRANCH   2   3
BRANCH   2   7
ATOM      7  C   UNL     1      -2.798   0.224  -0.116  1.00  0.00    -0.034 A 
ATOM      8  C   UNL     1      -2.107   0.297  -1.330  1.00  0.00     0.007 A 
ATOM      9  C   UNL     1      -2.055   0.012   1.050  1.00  0.00     0.007 A 
ATOM     10  C   UNL     1      -0.712   0.163  -1.376  1.00  0.00     0.026 A 
ATOM     11  C   UNL     1      -0.660  -0.118   1.000  1.00  0.00     0.026 A 
ATOM     12  C   UNL     1       0.038  -0.046  -0.214  1.00  0.00     0.044 A 
BRANCH  12  13
ATOM     13  N   UNL     1       1.453  -0.180  -0.247  1.00  0.00    -0.304 N 
ATOM     14  C   UNL     1       2.241  -0.380   0.962  1.00  0.00     0.162 C 
ATOM     15  C   UNL     1       2.271  -0.139  -1.383  1.00  0.00     0.258 C 
ATOM     16  C   UNL     1       3.642  -0.459   0.460  1.00  0.00    -0.015 A 
ATOM     17  C   UNL     1       3.654  -0.316  -0.922  1.00  0.00     0.045 A 
ATOM     18  O   UNL     1       2.001   0.007  -2.562  1.00  0.00    -0.269 OA
ATOM     19  C   UNL     1       4.825  -0.642   1.156  1.00  0.00     0.006 A 
ATOM     20  C   UNL     1       4.820  -0.348  -1.665  1.00  0.00     0.014 A 
ATOM     21  C   UNL     1       6.019  -0.678   0.427  1.00  0.00     0.000 A 
ATOM     22  C   UNL     1       6.018  -0.532  -0.973  1.00  0.00     0.001 A 
ENDBRANCH  12  13
ENDBRANCH   2   7
TORSDOF 4
