REMARK SMILES COC(=O)[C@@H]1[C@H]2C[C@H]3c4[nH]c5ccccc5c4CCN3C[C@@H]2CC[C@@H]1O
REMARK SMILES IDX 5 1 6 2 7 3 8 4 9 5 10 6 11 7 12 8 13 9 14 10 15 11 16 12
REMARK SMILES IDX 17 13 18 14 19 15 20 16 21 17 22 18 23 19 24 20 25 21 3 23
REMARK SMILES IDX 4 24 2 25 1 26 26 27
REMARK H PARENT 10 22 26 28
REMARK Flexibility Score: inf
ROOT
ATOM      1  C   UNL     1      -2.476  -0.381   1.176  1.00  0.00     0.131 C 
ATOM      2  C   UNL     1      -1.616   0.058  -0.033  1.00  0.00     0.012 C 
ATOM      3  C   UNL     1      -0.139   0.207   0.364  1.00  0.00     0.030 C 
ATOM      4  C   UNL     1       0.741   0.603  -0.837  1.00  0.00     0.104 C 
ATOM      5  C   UNL     1       2.184   0.626  -0.436  1.00  0.00     0.037 A 
ATOM      6  N   UNL     1       2.771   1.554   0.379  1.00  0.00    -0.357 N 
ATOM      7  C   UNL     1       4.104   1.243   0.557  1.00  0.00     0.046 A 
ATOM      8  C   UNL     1       5.087   1.897   1.309  1.00  0.00     0.026 A 
ATOM      9  C   UNL     1       6.376   1.355   1.301  1.00  0.00     0.002 A 
ATOM     10  C   UNL     1       6.669   0.207   0.568  1.00  0.00     0.001 A 
ATOM     11  C   UNL     1       5.675  -0.436  -0.179  1.00  0.00     0.010 A 
ATOM     12  C   UNL     1       4.368   0.088  -0.184  1.00  0.00     0.003 A 
ATOM     13  C   UNL     1       3.148  -0.289  -0.806  1.00  0.00    -0.016 A 
ATOM     14  C   UNL     1       2.823  -1.410  -1.729  1.00  0.00     0.053 C 
ATOM     15  C   UNL     1       1.287  -1.588  -1.848  1.00  0.00     0.090 C 
ATOM     16  N   UNL     1       0.573  -0.299  -2.004  1.00  0.00    -0.294 NA
ATOM     17  C   UNL     1      -0.833  -0.463  -2.377  1.00  0.00     0.089 C 
ATOM     18  C   UNL     1      -1.743  -0.908  -1.221  1.00  0.00     0.007 C 
ATOM     19  C   UNL     1      -3.205  -1.002  -1.687  1.00  0.00     0.008 C 
ATOM     20  C   UNL     1      -4.211  -1.161  -0.545  1.00  0.00     0.033 C 
ATOM     21  C   UNL     1      -3.553  -1.416   0.810  1.00  0.00     0.129 C 
ATOM     22  H   UNL     1       2.307   2.345   0.802  1.00  0.00     0.166 HD
ENDROOT
BRANCH   1  23
ATOM     23  C   UNL     1      -3.026   0.853   1.873  1.00  0.00     0.311 C 
ATOM     24  O   UNL     1      -2.528   1.329   2.887  1.00  0.00    -0.252 OA
BRANCH  23  25
ATOM     25  O   UNL     1      -4.055   1.415   1.182  1.00  0.00    -0.469 OA
ATOM     26  C   UNL     1      -4.600   2.582   1.798  1.00  0.00     0.282 C 
ENDBRANCH  23  25
ENDBRANCH   1  23
BRANCH  21  27
ATOM     27  O   UNL     1      -4.533  -1.523   1.836  1.00  0.00    -0.392 OA
ATOM     28  H   UNL     1      -5.180  -2.197   1.564  1.00  0.00     0.210 HD
ENDBRANCH  21  27
TORSDOF 3
