REMARK SMILES CCOC(=O)[C@H](CCc1ccccc1)N[C@H]1CCc2ccccc2N(CC(=O)O)C1=O
REMARK SMILES IDX 16 1 15 3 6 5 4 6 5 7 3 8 2 9 1 10 7 11 8 12 9 13 10 14
REMARK SMILES IDX 14 15 11 16 13 17 12 18 30 19 31 20 25 21 24 22 19 23 23 24
REMARK SMILES IDX 20 25 22 26 21 27 18 28 17 29 26 31 27 32 28 33 29 34
REMARK H PARENT 15 4 29 35
REMARK Flexibility Score: 90.00
ROOT
ATOM      1  C   UNL     1       0.813  -0.822  -0.361  1.00  0.00     0.145 CG0
ATOM      2  G   UNL     1       1.075  -2.206   0.209  1.00  0.00     0.000 G0
ENDROOT
BRANCH   1   3
ATOM      3  N   UNL     1      -0.529  -0.824  -1.014  1.00  0.00    -0.293 NA
ATOM      4  H   UNL     1      -0.357  -0.558  -1.997  1.00  0.00     0.124 HD
BRANCH   3   5
ATOM      5  C   UNL     1      -1.484   0.179  -0.458  1.00  0.00     0.165 C 
BRANCH   5   6
ATOM      6  C   UNL     1      -0.967   1.626  -0.612  1.00  0.00     0.323 C 
ATOM      7  O   UNL     1       0.021   1.951  -1.260  1.00  0.00    -0.250 OA
BRANCH   6   8
ATOM      8  O   UNL     1      -1.789   2.509   0.023  1.00  0.00    -0.465 OA
BRANCH   8   9
ATOM      9  C   UNL     1      -1.404   3.883  -0.110  1.00  0.00     0.229 C 
ATOM     10  C   UNL     1      -2.277   4.711   0.811  1.00  0.00     0.049 C 
ENDBRANCH   8   9
ENDBRANCH   6   8
ENDBRANCH   5   6
BRANCH   5  11
ATOM     11  C   UNL     1      -1.915  -0.155   0.985  1.00  0.00     0.036 C 
BRANCH  11  12
ATOM     12  C   UNL     1      -2.685  -1.475   1.122  1.00  0.00     0.038 C 
BRANCH  12  13
ATOM     13  C   UNL     1      -4.036  -1.453   0.450  1.00  0.00    -0.048 A 
ATOM     14  C   UNL     1      -5.109  -0.761   1.027  1.00  0.00     0.004 A 
ATOM     15  C   UNL     1      -4.230  -2.108  -0.773  1.00  0.00     0.004 A 
ATOM     16  C   UNL     1      -6.351  -0.725   0.391  1.00  0.00     0.000 A 
ATOM     17  C   UNL     1      -5.472  -2.071  -1.408  1.00  0.00     0.000 A 
ATOM     18  C   UNL     1      -6.532  -1.379  -0.826  1.00  0.00     0.000 A 
ENDBRANCH  12  13
ENDBRANCH  11  12
ENDBRANCH   5  11
ENDBRANCH   3   5
ENDBRANCH   1   3
BRANCH   1  19
ATOM     19  C   UNL     1       1.892  -0.623  -1.436  1.00  0.00     0.244 C 
ATOM     20  O   UNL     1       1.559  -0.561  -2.630  1.00  0.00    -0.273 OA
BRANCH  19  21
ATOM     21  N   UNL     1       3.229  -0.529  -1.055  1.00  0.00    -0.300 N 
BRANCH  21  22
ATOM     22  C   UNL     1       3.749  -0.520   0.286  1.00  0.00     0.048 A 
ATOM     23  C   UNL     1       3.193  -1.206   1.385  1.00  0.00    -0.024 A 
ATOM     24  C   UNL     1       4.925   0.233   0.527  1.00  0.00     0.026 A 
ATOM     25  C   UNL     1       3.833  -1.109   2.652  1.00  0.00     0.006 A 
ATOM     26  C   UNL     1       5.532   0.319   1.782  1.00  0.00     0.002 A 
ATOM     27  C   UNL     1       4.984  -0.358   2.852  1.00  0.00     0.000 A 
BRANCH  23  28
ATOM     28  C   UNL     1       1.996  -2.128   1.408  1.00  0.00     0.040 C 
BRANCH  28  29
ATOM     29  C   UNL     1       1.075  -2.206   0.209  1.00  0.00     0.034 CG0
ATOM     30  G   UNL     1       0.813  -0.822  -0.361  1.00  0.00     0.000 G0
ENDBRANCH  28  29
ENDBRANCH  23  28
ENDBRANCH  21  22
BRANCH  21  31
ATOM     31  C   UNL     1       4.158  -0.353  -2.184  1.00  0.00     0.248 C 
BRANCH  31  32
ATOM     32  C   UNL     1       4.175   1.073  -2.716  1.00  0.00     0.323 C 
ATOM     33  O   UNL     1       3.974   2.104  -2.092  1.00  0.00    -0.250 OA
BRANCH  32  34
ATOM     34  O   UNL     1       4.545   1.135  -4.015  1.00  0.00    -0.480 OA
ATOM     35  H   UNL     1       4.461   2.088  -4.228  1.00  0.00     0.296 HD
ENDBRANCH  32  34
ENDBRANCH  31  32
ENDBRANCH  21  31
ENDBRANCH  19  21
ENDBRANCH   1  19
TORSDOF 11
