REMARK SMILES Nc1nc(=O)n([C@@H]2CS[C@H](CO)O2)cc1F
REMARK SMILES IDX 7 1 8 2 9 3 10 4 13 5 6 6 1 7 2 8 3 11 15 12 4 13 14 14
REMARK SMILES IDX 16 15 5 16 11 17 12 18
REMARK H PARENT 1 9 1 10 12 19
REMARK Flexibility Score: inf
ROOT
ATOM      1  C   UNL     1      -0.571   0.832  -0.372  1.00  0.00     0.235 C 
ATOM      2  C   UNL     1      -0.968   1.583   0.902  1.00  0.00     0.127 C 
ATOM      3  S   UNL     1      -2.770   1.602   0.838  1.00  0.00    -0.123 SA
ATOM      4  C   UNL     1      -2.814   0.209  -0.328  1.00  0.00     0.203 C 
ATOM      5  O   UNL     1      -1.478  -0.270  -0.534  1.00  0.00    -0.341 OA
ENDROOT
BRANCH   1   6
ATOM      6  N   UNL     1       0.804   0.348  -0.321  1.00  0.00    -0.268 N 
ATOM      7  N   UNL     1       4.740  -0.687  -0.125  1.00  0.00    -0.381 N 
ATOM      8  C   UNL     1       3.413  -0.346  -0.175  1.00  0.00     0.166 C 
ATOM      9  H   UNL     1       5.339  -0.039  -0.626  1.00  0.00     0.158 HD
ATOM     10  H   UNL     1       4.966  -1.665  -0.273  1.00  0.00     0.158 HD
ATOM     11  N   UNL     1       3.128   0.873  -0.528  1.00  0.00    -0.173 NA
ATOM     12  C   UNL     1       2.367  -1.339   0.157  1.00  0.00     0.181 C 
ATOM     13  C   UNL     1       1.815   1.281  -0.589  1.00  0.00     0.351 C 
ATOM     14  C   UNL     1       1.103  -0.942   0.072  1.00  0.00     0.136 C 
ATOM     15  F   UNL     1       2.749  -2.577   0.513  1.00  0.00    -0.201 F 
ATOM     16  O   UNL     1       1.530   2.445  -0.866  1.00  0.00    -0.246 OA
ENDBRANCH   1   6
BRANCH   4  17
ATOM     17  C   UNL     1      -3.690  -0.936   0.202  1.00  0.00     0.199 C 
BRANCH  17  18
ATOM     18  O   UNL     1      -3.268  -1.392   1.492  1.00  0.00    -0.393 OA
ATOM     19  H   UNL     1      -3.217  -0.599   2.058  1.00  0.00     0.210 HD
ENDBRANCH  17  18
ENDBRANCH   4  17
TORSDOF 3
