REMARK SMILES CCN(C(C)=O)c1cccc(-c2ccnc3c(C#N)cnn23)c1
REMARK SMILES IDX 7 1 8 2 9 3 10 4 11 5 23 6 3 7 2 8 1 9 4 10 5 11 6 12 12 13
REMARK SMILES IDX 13 14 22 15 14 16 16 17 21 18 15 19 17 20 20 21 18 22 19 23
REMARK H PARENT
REMARK Flexibility Score: inf
ROOT
ATOM      1  C   UNL     1      -1.289  -1.164   0.875  1.00  0.00     0.044 A 
ATOM      2  C   UNL     1      -1.194  -2.454   1.418  1.00  0.00     0.026 A 
ATOM      3  C   UNL     1      -0.090  -3.276   1.172  1.00  0.00     0.003 A 
ATOM      4  C   UNL     1       0.955  -2.826   0.373  1.00  0.00     0.010 A 
ATOM      5  C   UNL     1       0.903  -1.546  -0.188  1.00  0.00     0.002 A 
ATOM      6  C   UNL     1      -0.214  -0.731   0.076  1.00  0.00     0.036 A 
ENDROOT
BRANCH   1   7
ATOM      7  N   UNL     1      -2.418  -0.302   1.165  1.00  0.00    -0.313 N 
BRANCH   7   8
ATOM      8  C   UNL     1      -2.257   1.147   0.948  1.00  0.00     0.122 C 
ATOM      9  C   UNL     1      -2.738   1.590  -0.429  1.00  0.00     0.028 C 
ENDBRANCH   7   8
BRANCH   7  10
ATOM     10  C   UNL     1      -3.659  -0.838   1.562  1.00  0.00     0.223 C 
ATOM     11  C   UNL     1      -4.684   0.136   2.101  1.00  0.00     0.115 C 
ATOM     12  O   UNL     1      -3.971  -2.029   1.498  1.00  0.00    -0.275 OA
ENDBRANCH   7  10
ENDBRANCH   1   7
BRANCH   5  13
ATOM     13  C   UNL     1       2.000  -1.057  -1.051  1.00  0.00     0.076 C 
ATOM     14  C   UNL     1       2.352  -1.780  -2.131  1.00  0.00     0.049 C 
ATOM     15  N   UNL     1       2.674   0.153  -0.791  1.00  0.00    -0.213 N 
ATOM     16  C   UNL     1       3.453  -1.227  -2.960  1.00  0.00     0.116 C 
ATOM     17  C   UNL     1       3.709   0.590  -1.638  1.00  0.00     0.173 A 
ATOM     18  N   UNL     1       2.467   1.042   0.226  1.00  0.00    -0.173 NA
ATOM     19  N   UNL     1       4.095  -0.121  -2.742  1.00  0.00    -0.236 NA
ATOM     20  C   UNL     1       4.159   1.777  -1.104  1.00  0.00     0.117 A 
ATOM     21  C   UNL     1       3.370   2.002   0.029  1.00  0.00     0.157 A 
BRANCH  20  22
ATOM     22  C   UNL     1       5.205   2.598  -1.607  1.00  0.00     0.105 C 
ATOM     23  N   UNL     1       6.048   3.302  -1.982  1.00  0.00    -0.192 NA
ENDBRANCH  20  22
ENDBRANCH   5  13
TORSDOF 5
