REMARK SMILES N[C@@H](CC(=O)N1CCn2c(nnc2C(F)(F)F)C1)Cc1cc(F)c(F)cc1F
REMARK SMILES IDX 3 1 2 2 1 3 19 6 20 7 21 8 27 9 22 10 26 11 28 12 23 13
REMARK SMILES IDX 24 14 25 15 4 16 5 17 6 18 7 19 18 20 8 21 10 22 9 23 11 24
REMARK SMILES IDX 13 25 12 26 14 27 15 28 16 29 17 30
REMARK H PARENT 1 4 1 5
REMARK Flexibility Score: inf
ROOT
ATOM      1  C   UNL     1      -0.509   0.926  -0.859  1.00  0.00     0.119 C 
ENDROOT
BRANCH   1   2
ATOM      2  C   UNL     1      -2.029   0.791  -0.674  1.00  0.00     0.064 C 
BRANCH   2   3
ATOM      3  N   UNL     1      -2.661   2.008  -1.218  1.00  0.00    -0.327 NA
ATOM      4  H   UNL     1      -2.632   1.983  -2.237  1.00  0.00     0.119 HD
ATOM      5  H   UNL     1      -3.652   2.022  -0.969  1.00  0.00     0.119 HD
ENDBRANCH   2   3
BRANCH   2   6
ATOM      6  C   UNL     1      -2.402   0.617   0.819  1.00  0.00     0.058 C 
BRANCH   6   7
ATOM      7  C   UNL     1      -3.748  -0.043   1.012  1.00  0.00    -0.008 A 
ATOM      8  C   UNL     1      -3.856  -1.442   0.997  1.00  0.00     0.049 A 
ATOM      9  C   UNL     1      -4.910   0.719   1.188  1.00  0.00     0.129 A 
ATOM     10  C   UNL     1      -5.101  -2.043   1.167  1.00  0.00     0.159 A 
ATOM     11  C   UNL     1      -6.154   0.120   1.359  1.00  0.00     0.082 A 
ATOM     12  F   UNL     1      -4.837   2.057   1.182  1.00  0.00    -0.207 F 
ATOM     13  F   UNL     1      -5.194  -3.379   1.153  1.00  0.00    -0.204 F 
ATOM     14  C   UNL     1      -6.240  -1.266   1.349  1.00  0.00     0.161 A 
ATOM     15  F   UNL     1      -7.435  -1.849   1.510  1.00  0.00    -0.204 F 
ENDBRANCH   6   7
ENDBRANCH   2   6
ENDBRANCH   1   2
BRANCH   1  16
ATOM     16  C   UNL     1       0.226  -0.384  -0.616  1.00  0.00     0.224 C 
ATOM     17  O   UNL     1      -0.386  -1.432  -0.410  1.00  0.00    -0.275 OA
BRANCH  16  18
ATOM     18  N   UNL     1       1.619  -0.342  -0.628  1.00  0.00    -0.333 N 
ATOM     19  C   UNL     1       2.401   0.766  -1.193  1.00  0.00     0.142 C 
ATOM     20  C   UNL     1       2.303  -1.639  -0.502  1.00  0.00     0.197 C 
ATOM     21  C   UNL     1       3.692   0.997  -0.408  1.00  0.00     0.147 C 
ATOM     22  C   UNL     1       3.751  -1.471  -0.200  1.00  0.00     0.153 A 
ATOM     23  N   UNL     1       4.375  -0.255  -0.175  1.00  0.00    -0.304 N 
ATOM     24  N   UNL     1       4.644  -2.403   0.051  1.00  0.00    -0.133 NA
ATOM     25  C   UNL     1       5.688  -0.482   0.129  1.00  0.00     0.238 A 
ATOM     26  N   UNL     1       5.857  -1.786   0.258  1.00  0.00    -0.125 NA
BRANCH  25  27
ATOM     27  C   UNL     1       6.692   0.598   0.269  1.00  0.00     0.451 C 
ATOM     28  F   UNL     1       6.913   1.224  -0.919  1.00  0.00    -0.163 F 
ATOM     29  F   UNL     1       6.260   1.565   1.125  1.00  0.00    -0.163 F 
ATOM     30  F   UNL     1       7.895   0.175   0.725  1.00  0.00    -0.163 F 
ENDBRANCH  25  27
ENDBRANCH  16  18
ENDBRANCH   1  16
TORSDOF 7
