REMARK SMILES CSc1ccc(C(=O)c2[nH]c(=O)[nH]c2C)cc1
REMARK SMILES IDX 3 1 4 2 5 3 6 4 16 5 17 6 2 7 1 8 7 9 8 10 9 11 10 12 14 13
REMARK SMILES IDX 11 14 13 16 15 17 12 18
REMARK H PARENT 10 15 13 19
REMARK Flexibility Score: inf
ROOT
ATOM      1  C   UNL     1       2.699  -0.549  -0.518  1.00  0.00     0.007 A 
ATOM      2  C   UNL     1       2.278   0.052  -1.708  1.00  0.00     0.016 A 
ATOM      3  C   UNL     1       1.040   0.696  -1.775  1.00  0.00     0.013 A 
ATOM      4  C   UNL     1       0.203   0.719  -0.655  1.00  0.00     0.024 A 
ATOM      5  C   UNL     1       0.624   0.130   0.543  1.00  0.00     0.013 A 
ATOM      6  C   UNL     1       1.865  -0.510   0.605  1.00  0.00     0.016 A 
ENDROOT
BRANCH   1   7
ATOM      7  S   UNL     1       4.276  -1.376  -0.469  1.00  0.00    -0.130 SA
ATOM      8  C   UNL     1       5.119  -0.350   0.765  1.00  0.00     0.091 C 
ENDBRANCH   1   7
BRANCH   4   9
ATOM      9  C   UNL     1      -1.095   1.420  -0.758  1.00  0.00     0.211 C 
ATOM     10  O   UNL     1      -1.158   2.500  -1.341  1.00  0.00    -0.287 OA
BRANCH   9  11
ATOM     11  C   UNL     1      -2.302   0.832  -0.126  1.00  0.00     0.110 C 
ATOM     12  N   UNL     1      -3.308   1.668   0.314  1.00  0.00    -0.303 N 
ATOM     13  C   UNL     1      -2.686  -0.442   0.095  1.00  0.00     0.044 C 
ATOM     14  C   UNL     1      -4.352   0.912   0.839  1.00  0.00     0.323 C 
ATOM     15  H   UNL     1      -3.308   2.673   0.215  1.00  0.00     0.172 HD
ATOM     16  N   UNL     1      -3.925  -0.414   0.702  1.00  0.00    -0.310 N 
ATOM     17  C   UNL     1      -2.067  -1.746  -0.253  1.00  0.00     0.067 C 
ATOM     18  O   UNL     1      -5.403   1.305   1.306  1.00  0.00    -0.248 OA
ATOM     19  H   UNL     1      -4.496  -1.204   0.964  1.00  0.00     0.171 HD
ENDBRANCH   9  11
ENDBRANCH   4   9
TORSDOF 3
