REMARK SMILES O=C1Nc2ccc(Cl)cc2C(c2ccccc2Cl)=NC1O
REMARK SMILES IDX 11 1 19 2 10 3 4 4 5 5 6 6 9 7 7 8 8 9 3 10 1 11 2 12 12 15
REMARK SMILES IDX 13 16 17 17 14 18 16 19 18 20 15 21 20 22 21 24
REMARK H PARENT 3 14 21 25
REMARK Flexibility Score: 90.00
ROOT
ATOM      1  C   UNL     1      -0.032   0.606   0.360  1.00  0.00     0.079 C 
ATOM      2  N   UNL     1      -0.635   1.661   0.794  1.00  0.00    -0.243 NA
ENDROOT
BRANCH   1   3
ATOM      3  C   UNL     1      -0.659  -0.738   0.165  1.00  0.00     0.026 A 
ATOM      4  C   UNL     1      -1.911  -0.894  -0.457  1.00  0.00     0.050 A 
ATOM      5  C   UNL     1      -2.339  -2.178  -0.821  1.00  0.00     0.028 A 
ATOM      6  C   UNL     1      -1.573  -3.301  -0.502  1.00  0.00     0.023 A 
ATOM      7  C   UNL     1       0.098  -1.873   0.501  1.00  0.00     0.033 A 
ATOM      8  C   UNL     1      -0.366  -3.144   0.170  1.00  0.00     0.041 A 
ATOM      9  Cl  UNL     1       0.574  -4.527   0.573  1.00  0.00    -0.084 Cl
BRANCH   4  10
ATOM     10  N   UNL     1      -2.775   0.163  -0.776  1.00  0.00    -0.321 N 
ATOM     11  O   UNL     1      -3.640   2.230  -0.590  1.00  0.00    -0.269 OA
ATOM     12  C   UNL     1      -2.866   1.379  -0.146  1.00  0.00     0.276 CG0
ATOM     13  G   UNL     1      -2.041   1.578   1.152  1.00  0.00     0.000 G0
ATOM     14  H   UNL     1      -3.500   0.021  -1.469  1.00  0.00     0.170 HD
ENDBRANCH   4  10
ENDBRANCH   1   3
BRANCH   1  15
ATOM     15  C   UNL     1       1.421   0.764   0.049  1.00  0.00     0.019 A 
ATOM     16  C   UNL     1       2.240   1.263   1.074  1.00  0.00     0.012 A 
ATOM     17  C   UNL     1       1.977   0.457  -1.200  1.00  0.00     0.050 A 
ATOM     18  C   UNL     1       3.610   1.420   0.864  1.00  0.00     0.001 A 
ATOM     19  C   UNL     1       3.352   0.617  -1.401  1.00  0.00     0.021 A 
ATOM     20  Cl  UNL     1       1.033  -0.074  -2.545  1.00  0.00    -0.084 Cl
ATOM     21  C   UNL     1       4.166   1.091  -0.371  1.00  0.00     0.002 A 
ENDBRANCH   1  15
BRANCH   2  22
ATOM     22  C   UNL     1      -2.041   1.578   1.152  1.00  0.00     0.323 CG0
ATOM     23  G   UNL     1      -2.866   1.379  -0.146  1.00  0.00     0.000 G0
BRANCH  22  24
ATOM     24  O   UNL     1      -2.484   2.733   1.846  1.00  0.00    -0.364 OA
ATOM     25  H   UNL     1      -2.335   3.455   1.211  1.00  0.00     0.213 HD
ENDBRANCH  22  24
ENDBRANCH   2  22
TORSDOF 2
