REMARK SMILES O=C(Nc1c(Cl)cncc1Cl)c1ccc(OC(F)F)c(OCC2CC2)c1
REMARK SMILES IDX 15 1 20 2 26 3 12 4 13 5 14 6 16 7 17 8 18 9 19 10 21 11
REMARK SMILES IDX 22 12 23 13 24 14 25 15 2 16 1 17 3 18 4 20 5 21 10 22 6 23
REMARK SMILES IDX 7 24 9 25 11 26 8 27
REMARK H PARENT 3 19
REMARK Flexibility Score: inf
ROOT
ATOM      1  C   UNL     1      -1.516   1.660  -1.121  1.00  0.00     0.168 A 
ATOM      2  C   UNL     1      -1.187   0.303  -1.155  1.00  0.00     0.162 A 
ATOM      3  C   UNL     1      -0.180  -0.200  -0.333  1.00  0.00     0.064 A 
ATOM      4  C   UNL     1       0.472   0.651   0.567  1.00  0.00     0.044 A 
ATOM      5  C   UNL     1       0.097   2.001   0.647  1.00  0.00     0.018 A 
ATOM      6  C   UNL     1      -0.899   2.502  -0.197  1.00  0.00     0.051 A 
ENDROOT
BRANCH   1   7
ATOM      7  O   UNL     1      -2.492   2.197  -1.914  1.00  0.00    -0.431 OA
BRANCH   7   8
ATOM      8  C   UNL     1      -2.069   2.245  -3.272  1.00  0.00     0.542 C 
ATOM      9  F   UNL     1      -3.101   2.758  -3.992  1.00  0.00    -0.167 F 
ATOM     10  F   UNL     1      -1.048   3.136  -3.380  1.00  0.00    -0.167 F 
ENDBRANCH   7   8
ENDBRANCH   1   7
BRANCH   2  11
ATOM     11  O   UNL     1      -1.805  -0.551  -2.029  1.00  0.00    -0.489 OA
BRANCH  11  12
ATOM     12  C   UNL     1      -3.005  -1.073  -1.441  1.00  0.00     0.233 C 
BRANCH  12  13
ATOM     13  C   UNL     1      -3.571  -2.091  -2.382  1.00  0.00     0.027 C 
ATOM     14  C   UNL     1      -4.446  -3.207  -1.870  1.00  0.00     0.007 C 
ATOM     15  C   UNL     1      -3.059  -3.509  -2.367  1.00  0.00     0.007 C 
ENDBRANCH  12  13
ENDBRANCH  11  12
ENDBRANCH   2  11
BRANCH   4  16
ATOM     16  C   UNL     1       1.535   0.080   1.442  1.00  0.00     0.255 C 
ATOM     17  O   UNL     1       1.534  -1.121   1.679  1.00  0.00    -0.269 OA
ATOM     18  N   UNL     1       2.519   0.973   1.834  1.00  0.00    -0.319 N 
ATOM     19  H   UNL     1       2.704   1.718   1.168  1.00  0.00     0.170 HD
BRANCH  18  20
ATOM     20  C   UNL     1       3.621   0.613   2.661  1.00  0.00     0.082 A 
ATOM     21  C   UNL     1       3.508  -0.144   3.838  1.00  0.00     0.084 A 
ATOM     22  C   UNL     1       4.893   1.087   2.300  1.00  0.00     0.084 A 
ATOM     23  Cl  UNL     1       2.006  -0.555   4.584  1.00  0.00    -0.080 Cl
ATOM     24  C   UNL     1       4.673  -0.453   4.535  1.00  0.00     0.133 A 
ATOM     25  C   UNL     1       5.992   0.726   3.068  1.00  0.00     0.133 A 
ATOM     26  Cl  UNL     1       5.131   2.085   0.910  1.00  0.00    -0.080 Cl
ATOM     27  N   UNL     1       5.915  -0.047   4.174  1.00  0.00    -0.261 NA
ENDBRANCH  18  20
ENDBRANCH   4  16
TORSDOF 7
