REMARK SMILES CO/N=C(\C(=O)N[C@@H]1C(=O)N2C(C(=O)O)=C(COC(N)=O)CS[C@H]12)c1ccco1
REMARK SMILES IDX 8 1 9 2 10 3 11 4 12 5 16 6 22 7 23 8 24 9 7 10 5 11 6 12
REMARK SMILES IDX 4 14 3 15 2 16 1 17 25 18 26 19 29 20 27 21 28 22 13 23
REMARK SMILES IDX 14 24 15 25 17 27 18 28 19 29 20 30 21 31
REMARK H PARENT 7 13 15 26 20 32 20 33
REMARK Flexibility Score: inf
ROOT
ATOM      1  C   UNL     1      -0.449  -0.558  -1.364  1.00  0.00     0.206 C 
ATOM      2  C   UNL     1       0.512  -1.729  -1.010  1.00  0.00     0.253 C 
ATOM      3  O   UNL     1       0.418  -2.929  -0.906  1.00  0.00    -0.272 OA
ATOM      4  N   UNL     1       1.504  -0.849  -0.731  1.00  0.00    -0.289 N 
ATOM      5  C   UNL     1       2.634  -0.977   0.025  1.00  0.00     0.134 C 
ATOM      6  C   UNL     1       3.099   0.042   0.786  1.00  0.00     0.008 C 
ATOM      7  C   UNL     1       2.339   1.337   0.974  1.00  0.00     0.108 C 
ATOM      8  S   UNL     1       0.545   1.126   0.777  1.00  0.00    -0.129 SA
ATOM      9  C   UNL     1       0.710   0.358  -0.861  1.00  0.00     0.181 C 
ENDROOT
BRANCH   1  10
ATOM     10  N   UNL     1      -1.743  -0.538  -0.639  1.00  0.00    -0.336 N 
ATOM     11  C   UNL     1      -2.658   0.474  -0.845  1.00  0.00     0.277 C 
ATOM     12  O   UNL     1      -2.478   1.429  -1.587  1.00  0.00    -0.267 OA
ATOM     13  H   UNL     1      -1.944  -1.218   0.089  1.00  0.00     0.164 HD
BRANCH  11  14
ATOM     14  C   UNL     1      -3.962   0.313  -0.074  1.00  0.00     0.209 C 
ATOM     15  N   UNL     1      -4.057   0.454   1.218  1.00  0.00    -0.077 NA
BRANCH  15  16
ATOM     16  O   UNL     1      -2.823   0.799   1.787  1.00  0.00    -0.398 OA
ATOM     17  C   UNL     1      -3.011   1.032   3.177  1.00  0.00     0.315 C 
ENDBRANCH  15  16
BRANCH  14  18
ATOM     18  C   UNL     1      -5.115  -0.053  -0.854  1.00  0.00     0.161 A 
ATOM     19  C   UNL     1      -6.446  -0.201  -0.504  1.00  0.00     0.053 A 
ATOM     20  O   UNL     1      -4.965  -0.349  -2.182  1.00  0.00    -0.462 OA
ATOM     21  C   UNL     1      -7.138  -0.591  -1.676  1.00  0.00     0.043 A 
ATOM     22  C   UNL     1      -6.192  -0.666  -2.669  1.00  0.00     0.196 A 
ENDBRANCH  14  18
ENDBRANCH  11  14
ENDBRANCH   1  10
BRANCH   5  23
ATOM     23  C   UNL     1       3.329  -2.296   0.001  1.00  0.00     0.352 C 
ATOM     24  O   UNL     1       3.778  -2.893   0.964  1.00  0.00    -0.245 OA
BRANCH  23  25
ATOM     25  O   UNL     1       3.437  -2.773  -1.252  1.00  0.00    -0.477 OA
ATOM     26  H   UNL     1       3.867  -3.645  -1.141  1.00  0.00     0.297 HD
ENDBRANCH  23  25
ENDBRANCH   5  23
BRANCH   6  27
ATOM     27  C   UNL     1       4.400  -0.007   1.557  1.00  0.00     0.269 C 
BRANCH  27  28
ATOM     28  O   UNL     1       5.171   1.176   1.286  1.00  0.00    -0.445 OA
BRANCH  28  29
ATOM     29  C   UNL     1       5.986   1.097   0.211  1.00  0.00     0.404 C 
ATOM     30  N   UNL     1       6.684   2.246   0.077  1.00  0.00    -0.335 N 
ATOM     31  O   UNL     1       6.098   0.149  -0.548  1.00  0.00    -0.225 OA
ATOM     32  H   UNL     1       6.630   2.953   0.793  1.00  0.00     0.163 HD
ATOM     33  H   UNL     1       7.397   2.296  -0.636  1.00  0.00     0.163 HD
ENDBRANCH  28  29
ENDBRANCH  27  28
ENDBRANCH   6  27
TORSDOF 9
