REMARK SMILES C[N+]1(C)CCC(=C(c2ccccc2)c2ccccc2)CC1
REMARK SMILES IDX 1 1 2 2 3 3 4 4 5 5 6 6 7 7 20 8 21 9 8 10 9 11 13 12 10 13
REMARK SMILES IDX 12 14 11 15 14 16 15 17 19 18 16 19 18 20 17 21
REMARK H PARENT
REMARK Flexibility Score: inf
ROOT
ATOM      1  C   UNL     1       4.151  -1.100   0.848  1.00  0.00     0.334 C 
ATOM      2  N   UNL     1       3.296  -0.218  -0.060  1.00  0.00    -0.328 N 
ATOM      3  C   UNL     1       4.226   0.545  -1.001  1.00  0.00     0.334 C 
ATOM      4  C   UNL     1       2.507   0.783   0.819  1.00  0.00     0.268 C 
ATOM      5  C   UNL     1       1.182   1.183   0.166  1.00  0.00     0.093 C 
ATOM      6  C   UNL     1       0.259  -0.017  -0.005  1.00  0.00    -0.051 C 
ATOM      7  C   UNL     1      -1.098   0.073   0.020  1.00  0.00    -0.011 C 
ATOM      8  C   UNL     1       1.009  -1.328  -0.207  1.00  0.00     0.093 C 
ATOM      9  C   UNL     1       2.351  -1.105  -0.908  1.00  0.00     0.268 C 
ENDROOT
BRANCH   7  10
ATOM     10  C   UNL     1      -1.748   1.400   0.153  1.00  0.00    -0.018 A 
ATOM     11  C   UNL     1      -1.775   2.294  -0.927  1.00  0.00     0.009 A 
ATOM     12  C   UNL     1      -2.355   1.765   1.361  1.00  0.00     0.009 A 
ATOM     13  C   UNL     1      -2.387   3.541  -0.792  1.00  0.00     0.001 A 
ATOM     14  C   UNL     1      -2.966   3.013   1.492  1.00  0.00     0.001 A 
ATOM     15  C   UNL     1      -2.979   3.901   0.418  1.00  0.00     0.000 A 
ENDBRANCH   7  10
BRANCH   7  16
ATOM     16  C   UNL     1      -1.922  -1.157  -0.086  1.00  0.00    -0.018 A 
ATOM     17  C   UNL     1      -2.615  -1.435  -1.270  1.00  0.00     0.009 A 
ATOM     18  C   UNL     1      -2.027  -2.042   0.996  1.00  0.00     0.009 A 
ATOM     19  C   UNL     1      -3.389  -2.592  -1.376  1.00  0.00     0.001 A 
ATOM     20  C   UNL     1      -2.803  -3.197   0.887  1.00  0.00     0.001 A 
ATOM     21  C   UNL     1      -3.481  -3.473  -0.299  1.00  0.00     0.000 A 
ENDBRANCH   7  16
TORSDOF 2
