REMARK SMILES COc1cc(OC)c(C(=O)CCCN2CCCC2)c(OC)c1
REMARK SMILES IDX 11 1 9 2 10 3 8 4 3 5 4 6 22 7 5 8 19 9 2 10 1 11 6 12 7 13
REMARK SMILES IDX 20 14 21 15 12 16 13 17 14 18 15 19 18 20 16 21 17 22
REMARK H PARENT
REMARK Flexibility Score: inf
ROOT
ATOM      1  C   UNL     1       0.642  -0.995   0.824  1.00  0.00     0.083 C 
ENDROOT
BRANCH   1   2
ATOM      2  C   UNL     1      -0.664  -1.626   0.387  1.00  0.00     0.170 C 
ATOM      3  O   UNL     1      -0.831  -2.840   0.295  1.00  0.00    -0.294 OA
BRANCH   2   4
ATOM      4  C   UNL     1      -1.780  -0.712   0.069  1.00  0.00     0.102 A 
ATOM      5  C   UNL     1      -3.886   1.008  -0.581  1.00  0.00     0.126 A 
ATOM      6  C   UNL     1      -3.423   0.930   0.739  1.00  0.00     0.093 A 
ATOM      7  C   UNL     1      -3.291   0.223  -1.570  1.00  0.00     0.093 A 
ATOM      8  C   UNL     1      -2.365   0.073   1.075  1.00  0.00     0.137 A 
ATOM      9  C   UNL     1      -2.252  -0.648  -1.245  1.00  0.00     0.137 A 
BRANCH   5  10
ATOM     10  O   UNL     1      -4.898   1.811  -1.031  1.00  0.00    -0.496 OA
ATOM     11  C   UNL     1      -5.557   2.630  -0.074  1.00  0.00     0.278 C 
ENDBRANCH   5  10
BRANCH   8  12
ATOM     12  O   UNL     1      -1.845  -0.063   2.336  1.00  0.00    -0.496 OA
ATOM     13  C   UNL     1      -2.450   0.675   3.390  1.00  0.00     0.278 C 
ENDBRANCH   8  12
BRANCH   9  14
ATOM     14  O   UNL     1      -1.638  -1.352  -2.247  1.00  0.00    -0.496 OA
ATOM     15  C   UNL     1      -2.412  -2.503  -2.592  1.00  0.00     0.278 C 
ENDBRANCH   9  14
ENDBRANCH   2   4
ENDBRANCH   1   2
BRANCH   1  16
ATOM     16  C   UNL     1       1.821  -1.657   0.111  1.00  0.00     0.024 C 
BRANCH  16  17
ATOM     17  C   UNL     1       3.177  -1.087   0.545  1.00  0.00     0.085 C 
BRANCH  17  18
ATOM     18  N   UNL     1       3.297   0.367   0.339  1.00  0.00    -0.303 NA
ATOM     19  C   UNL     1       4.524   0.893   0.960  1.00  0.00     0.084 C 
ATOM     20  C   UNL     1       3.444   0.732  -1.079  1.00  0.00     0.084 C 
ATOM     21  C   UNL     1       5.634   0.679  -0.057  1.00  0.00     0.017 C 
ATOM     22  C   UNL     1       4.926   0.596  -1.401  1.00  0.00     0.017 C 
ENDBRANCH  17  18
ENDBRANCH  16  17
ENDBRANCH   1  16
TORSDOF 8
