REMARK SMILES CN1C(=O)OC(C)(C)C1=O
REMARK SMILES IDX 1 1 2 2 3 3 4 4 5 5 6 6 7 7 8 8 9 9 10 10
REMARK H PARENT
REMARK Flexibility Score: inf
ROOT
ATOM      1  C   UNL     1       2.633  -0.065  -0.829  1.00  0.00     0.160 C 
ATOM      2  N   UNL     1       1.358  -0.009  -0.162  1.00  0.00    -0.247 N 
ATOM      3  C   UNL     1       1.190   0.349   1.129  1.00  0.00     0.417 C 
ATOM      4  O   UNL     1       2.070   0.632   1.926  1.00  0.00    -0.224 OA
ATOM      5  O   UNL     1      -0.137   0.376   1.446  1.00  0.00    -0.433 OA
ATOM      6  C   UNL     1      -0.903   0.024   0.285  1.00  0.00     0.187 C 
ATOM      7  C   UNL     1      -1.846   1.166  -0.060  1.00  0.00     0.067 C 
ATOM      8  C   UNL     1      -1.636  -1.283   0.548  1.00  0.00     0.067 C 
ATOM      9  C   UNL     1       0.158  -0.153  -0.775  1.00  0.00     0.275 C 
ATOM     10  O   UNL     1      -0.041  -0.377  -1.959  1.00  0.00    -0.270 OA
ENDROOT
TORSDOF 0
