REMARK SMILES Nc1ccc2cc3ccc(N)cc3nc2c1
REMARK SMILES IDX 2 1 3 2 4 3 5 4 6 5 7 6 8 7 9 8 10 9 12 10 13 11 14 12 15 13
REMARK SMILES IDX 16 14 1 15 11 18
REMARK H PARENT 1 16 1 17 11 19 11 20
REMARK Flexibility Score: inf
ROOT
ATOM      1  C   UNL     1      -3.618   0.457  -0.167  1.00  0.00     0.034 A 
ATOM      2  C   UNL     1      -3.610  -0.929  -0.311  1.00  0.00     0.026 A 
ATOM      3  C   UNL     1      -2.403  -1.628  -0.325  1.00  0.00     0.012 A 
ATOM      4  C   UNL     1      -1.185  -0.935  -0.236  1.00  0.00     0.001 A 
ATOM      5  C   UNL     1       0.046  -1.600  -0.247  1.00  0.00     0.020 A 
ATOM      6  C   UNL     1       1.237  -0.871  -0.171  1.00  0.00     0.001 A 
ATOM      7  C   UNL     1       2.493  -1.498  -0.193  1.00  0.00     0.012 A 
ATOM      8  C   UNL     1       3.659  -0.736  -0.115  1.00  0.00     0.026 A 
ATOM      9  C   UNL     1       3.586   0.648   0.027  1.00  0.00     0.034 A 
ATOM     10  C   UNL     1       2.328   1.260  -0.012  1.00  0.00     0.054 A 
ATOM     11  C   UNL     1       1.148   0.530  -0.086  1.00  0.00     0.073 A 
ATOM     12  N   UNL     1      -0.032   1.177  -0.078  1.00  0.00    -0.248 NA
ATOM     13  C   UNL     1      -1.174   0.469  -0.149  1.00  0.00     0.073 A 
ATOM     14  C   UNL     1      -2.394   1.135  -0.140  1.00  0.00     0.054 A 
ENDROOT
BRANCH   1  15
ATOM     15  N   UNL     1      -4.820   1.168  -0.273  1.00  0.00    -0.399 N 
ATOM     16  H   UNL     1      -5.638   0.649   0.029  1.00  0.00     0.156 HD
ATOM     17  H   UNL     1      -4.783   2.100   0.129  1.00  0.00     0.156 HD
ENDBRANCH   1  15
BRANCH   9  18
ATOM     18  N   UNL     1       4.752   1.422  -0.015  1.00  0.00    -0.399 N 
ATOM     19  H   UNL     1       5.579   0.947   0.332  1.00  0.00     0.156 HD
ATOM     20  H   UNL     1       4.644   2.350   0.383  1.00  0.00     0.156 HD
ENDBRANCH   9  18
TORSDOF 2
