REMARK SMILES CN1CCOC(c2ccccc2)c2ccccc2C1
REMARK SMILES IDX 13 1 14 2 15 3 16 4 17 5 18 6 19 7 2 8 1 9 3 10 6 12 5 13
REMARK SMILES IDX 4 14 7 16 8 17 12 18 9 19 11 20 10 21
REMARK H PARENT
REMARK Flexibility Score: 80.00
ROOT
ATOM      1  C   UNL     1      -0.207  -0.688   0.008  1.00  0.00    -0.010 A 
ATOM      2  C   UNL     1       0.058  -1.816   0.811  1.00  0.00     0.007 A 
ATOM      3  C   UNL     1      -0.857  -2.863   0.921  1.00  0.00     0.000 A 
ATOM      4  C   UNL     1      -2.067  -2.802   0.243  1.00  0.00     0.000 A 
ATOM      5  C   UNL     1      -2.369  -1.684  -0.531  1.00  0.00     0.005 A 
ATOM      6  C   UNL     1      -1.460  -0.614  -0.650  1.00  0.00    -0.028 A 
ENDROOT
BRANCH   6   7
ATOM      7  C   UNL     1      -1.882   0.607  -1.445  1.00  0.00     0.120 C 
BRANCH   7   8
ATOM      8  N   UNL     1      -2.527   1.685  -0.682  1.00  0.00    -0.300 NA
ATOM      9  C   UNL     1      -3.934   1.391  -0.404  1.00  0.00     0.105 C 
BRANCH   8  10
ATOM     10  C   UNL     1      -1.841   2.083   0.563  1.00  0.00     0.113 CG0
ATOM     11  G   UNL     1      -0.359   2.474   0.428  1.00  0.00     0.000 G0
ENDBRANCH   8  10
ENDBRANCH   7   8
ENDBRANCH   6   7
BRANCH   1  12
ATOM     12  C   UNL     1       0.812   0.445  -0.106  1.00  0.00     0.179 C 
BRANCH  12  13
ATOM     13  O   UNL     1       0.522   1.444   0.876  1.00  0.00    -0.367 OA
BRANCH  13  14
ATOM     14  C   UNL     1      -0.359   2.474   0.428  1.00  0.00     0.177 CG0
ATOM     15  G   UNL     1      -1.841   2.083   0.563  1.00  0.00     0.000 G0
ENDBRANCH  13  14
ENDBRANCH  12  13
BRANCH  12  16
ATOM     16  C   UNL     1       2.274   0.005   0.019  1.00  0.00    -0.015 A 
ATOM     17  C   UNL     1       2.871  -0.720  -1.028  1.00  0.00     0.007 A 
ATOM     18  C   UNL     1       3.046   0.294   1.156  1.00  0.00     0.007 A 
ATOM     19  C   UNL     1       4.199  -1.140  -0.940  1.00  0.00     0.000 A 
ATOM     20  C   UNL     1       4.375  -0.127   1.241  1.00  0.00     0.000 A 
ATOM     21  C   UNL     1       4.951  -0.843   0.194  1.00  0.00     0.000 A 
ENDBRANCH  12  16
ENDBRANCH   1  12
TORSDOF 1
