REMARK SMILES N#CCC1(n2cc(-c3ncnc4[nH]ccc34)cn2)CN(C2CCN(C(=O)c3ccnc(C(F)(F)F)c3F)CC2)C1
REMARK SMILES IDX 25 1 26 2 24 3 23 4 22 5 21 6 39 7 38 8 27 9 37 10 36 11
REMARK SMILES IDX 31 12 30 13 28 14 29 15 32 16 33 17 34 18 35 19 20 20 19 21
REMARK SMILES IDX 40 22 4 23 3 24 2 25 1 26 5 27 6 28 18 29 7 30 17 31 8 32
REMARK SMILES IDX 16 33 9 34 15 35 12 36 10 37 14 38 13 39 11 40
REMARK H PARENT 13 41
REMARK Flexibility Score: inf
ROOT
ATOM      1  C   UNL     1      -5.277  -0.858   1.410  1.00  0.00     0.256 C 
ATOM      2  O   UNL     1      -5.678  -1.299   2.485  1.00  0.00    -0.269 OA
ATOM      3  N   UNL     1      -3.958  -0.978   0.966  1.00  0.00    -0.338 N 
ATOM      4  C   UNL     1      -3.022  -1.631   1.875  1.00  0.00     0.121 C 
ATOM      5  C   UNL     1      -1.582  -1.189   1.632  1.00  0.00     0.041 C 
ATOM      6  C   UNL     1      -1.184  -1.388   0.158  1.00  0.00     0.060 C 
ATOM      7  C   UNL     1      -2.177  -0.603  -0.717  1.00  0.00     0.041 C 
ATOM      8  C   UNL     1      -3.609  -1.056  -0.454  1.00  0.00     0.121 C 
ENDROOT
BRANCH   1   9
ATOM      9  C   UNL     1      -6.269  -0.169   0.567  1.00  0.00     0.079 A 
ATOM     10  F   UNL     1      -4.889   1.756   0.362  1.00  0.00    -0.204 F 
ATOM     11  C   UNL     1      -6.040   1.123   0.102  1.00  0.00     0.166 A 
ATOM     12  C   UNL     1      -7.029   1.745  -0.645  1.00  0.00     0.181 A 
ATOM     13  N   UNL     1      -8.218   1.125  -0.933  1.00  0.00    -0.249 NA
ATOM     14  C   UNL     1      -7.487  -0.798   0.315  1.00  0.00     0.037 A 
ATOM     15  C   UNL     1      -8.421  -0.117  -0.440  1.00  0.00     0.113 A 
BRANCH  12  16
ATOM     16  C   UNL     1      -6.761   3.147  -1.148  1.00  0.00     0.436 C 
ATOM     17  F   UNL     1      -5.715   3.197  -2.023  1.00  0.00    -0.164 F 
ATOM     18  F   UNL     1      -6.452   4.022  -0.148  1.00  0.00    -0.164 F 
ATOM     19  F   UNL     1      -7.815   3.709  -1.810  1.00  0.00    -0.164 F 
ENDBRANCH  12  16
ENDBRANCH   1   9
BRANCH   6  20
ATOM     20  N   UNL     1       0.193  -0.903  -0.075  1.00  0.00    -0.295 NA
ATOM     21  C   UNL     1       0.690  -1.308  -1.413  1.00  0.00     0.118 C 
ATOM     22  C   UNL     1       1.195  -1.782   0.567  1.00  0.00     0.118 C 
ATOM     23  C   UNL     1       2.019  -1.774  -0.752  1.00  0.00     0.101 C 
BRANCH  23  24
ATOM     24  C   UNL     1       2.649  -3.073  -1.245  1.00  0.00     0.153 C 
BRANCH  24  25
ATOM     25  C   UNL     1       1.711  -4.203  -1.227  1.00  0.00     0.065 C 
ATOM     26  N   UNL     1       0.946  -5.075  -1.193  1.00  0.00    -0.198 NA
ENDBRANCH  24  25
ENDBRANCH  23  24
BRANCH  23  27
ATOM     27  N   UNL     1       3.047  -0.693  -0.805  1.00  0.00    -0.262 N 
ATOM     28  C   UNL     1       3.909  -0.380   0.210  1.00  0.00     0.119 A 
ATOM     29  N   UNL     1       3.392  -0.117  -1.977  1.00  0.00    -0.180 NA
ATOM     30  C   UNL     1       4.799   0.548  -0.295  1.00  0.00     0.039 A 
ATOM     31  C   UNL     1       4.431   0.659  -1.653  1.00  0.00     0.145 A 
BRANCH  30  32
ATOM     32  C   UNL     1       5.877   1.134   0.470  1.00  0.00     0.086 A 
ATOM     33  C   UNL     1       6.515   2.325   0.100  1.00  0.00     0.045 A 
ATOM     34  N   UNL     1       6.279   0.475   1.587  1.00  0.00    -0.235 NA
ATOM     35  C   UNL     1       6.409   3.323  -0.916  1.00  0.00     0.032 A 
ATOM     36  C   UNL     1       7.560   2.725   0.924  1.00  0.00     0.141 A 
ATOM     37  C   UNL     1       7.304   0.992   2.288  1.00  0.00     0.224 A 
ATOM     38  C   UNL     1       7.390   4.266  -0.690  1.00  0.00     0.085 A 
ATOM     39  N   UNL     1       8.086   3.885   0.428  1.00  0.00    -0.346 N 
ATOM     40  N   UNL     1       8.008   2.104   2.024  1.00  0.00    -0.219 NA
ATOM     41  H   UNL     1       8.864   4.375   0.848  1.00  0.00     0.167 HD
ENDBRANCH  30  32
ENDBRANCH  23  27
ENDBRANCH   6  20
TORSDOF 7
