REMARK SMILES O=C(O)c1cccc(-c2noc(-c3ccccc3F)n2)c1
REMARK SMILES IDX 4 1 5 2 6 3 7 4 8 5 21 6 2 7 1 8 3 9 9 11 10 12 20 13 11 14
REMARK SMILES IDX 12 15 13 16 14 17 18 18 15 19 17 20 19 21 16 22
REMARK H PARENT 3 10
REMARK Flexibility Score: inf
ROOT
ATOM      1  C   UNL     1      -3.729  -0.334   0.683  1.00  0.00     0.060 A 
ATOM      2  C   UNL     1      -4.628   0.309  -0.176  1.00  0.00     0.016 A 
ATOM      3  C   UNL     1      -4.149   1.072  -1.241  1.00  0.00     0.002 A 
ATOM      4  C   UNL     1      -2.773   1.196  -1.450  1.00  0.00     0.012 A 
ATOM      5  C   UNL     1      -1.858   0.558  -0.598  1.00  0.00     0.024 A 
ATOM      6  C   UNL     1      -2.350  -0.208   0.470  1.00  0.00     0.027 A 
ENDROOT
BRANCH   1   7
ATOM      7  C   UNL     1      -4.190  -1.156   1.828  1.00  0.00     0.335 C 
ATOM      8  O   UNL     1      -3.475  -1.745   2.618  1.00  0.00    -0.246 OA
BRANCH   7   9
ATOM      9  O   UNL     1      -5.530  -1.204   1.931  1.00  0.00    -0.478 OA
ATOM     10  H   UNL     1      -5.684  -1.771   2.716  1.00  0.00     0.297 HD
ENDBRANCH   7   9
ENDBRANCH   1   7
BRANCH   5  11
ATOM     11  C   UNL     1      -0.419   0.682  -0.810  1.00  0.00     0.202 A 
ATOM     12  N   UNL     1       0.135   1.394  -1.805  1.00  0.00    -0.057 NA
ATOM     13  N   UNL     1       0.499   0.066   0.012  1.00  0.00    -0.187 NA
ATOM     14  O   UNL     1       1.505   1.224  -1.610  1.00  0.00    -0.334 OA
ATOM     15  C   UNL     1       1.651   0.424  -0.514  1.00  0.00     0.261 A 
BRANCH  15  16
ATOM     16  C   UNL     1       3.002   0.087  -0.089  1.00  0.00     0.076 A 
ATOM     17  C   UNL     1       3.183  -0.735   1.038  1.00  0.00     0.017 A 
ATOM     18  C   UNL     1       4.143   0.546  -0.753  1.00  0.00     0.135 A 
ATOM     19  C   UNL     1       4.464  -1.081   1.478  1.00  0.00     0.001 A 
ATOM     20  C   UNL     1       5.425   0.204  -0.319  1.00  0.00     0.040 A 
ATOM     21  F   UNL     1       4.043   1.334  -1.834  1.00  0.00    -0.206 F 
ATOM     22  C   UNL     1       5.586  -0.611   0.799  1.00  0.00     0.003 A 
ENDBRANCH  15  16
ENDBRANCH   5  11
TORSDOF 4
