REMARK SMILES C[C@@H](CN1CC(=O)NC(=O)C1)N1CC(=O)NC(=O)C1
REMARK SMILES IDX 1 1 2 2 3 3 4 4 5 5 11 6 6 7 9 8 7 9 8 10 10 11 12 13 13 14
REMARK SMILES IDX 19 15 14 16 17 17 15 18 16 19 18 20
REMARK H PARENT 8 12 16 21
REMARK Flexibility Score: inf
ROOT
ATOM      1  C   UNL     1       0.061  -2.092   0.698  1.00  0.00     0.026 C 
ATOM      2  C   UNL     1      -0.487  -0.665   0.844  1.00  0.00     0.068 C 
ENDROOT
BRANCH   2   3
ATOM      3  C   UNL     1       0.012   0.286  -0.293  1.00  0.00     0.104 C 
BRANCH   3   4
ATOM      4  N   UNL     1       1.445   0.555  -0.472  1.00  0.00    -0.284 NA
ATOM      5  C   UNL     1       2.156  -0.428  -1.299  1.00  0.00     0.185 C 
ATOM      6  C   UNL     1       2.171   0.852   0.769  1.00  0.00     0.185 C 
ATOM      7  C   UNL     1       3.577   0.049  -1.605  1.00  0.00     0.240 C 
ATOM      8  C   UNL     1       3.591   1.330   0.466  1.00  0.00     0.240 C 
ATOM      9  O   UNL     1       4.249  -0.429  -2.517  1.00  0.00    -0.273 OA
ATOM     10  N   UNL     1       4.114   0.981  -0.753  1.00  0.00    -0.294 N 
ATOM     11  O   UNL     1       4.274   1.928   1.296  1.00  0.00    -0.273 OA
ATOM     12  H   UNL     1       5.072   1.246  -0.924  1.00  0.00     0.172 HD
ENDBRANCH   3   4
ENDBRANCH   2   3
BRANCH   2  13
ATOM     13  N   UNL     1      -1.953  -0.757   1.033  1.00  0.00    -0.281 NA
ATOM     14  C   UNL     1      -2.563   0.367   1.764  1.00  0.00     0.186 C 
ATOM     15  C   UNL     1      -2.764  -1.148  -0.131  1.00  0.00     0.186 C 
ATOM     16  C   UNL     1      -2.921   1.546   0.869  1.00  0.00     0.240 C 
ATOM     17  C   UNL     1      -3.138   0.026  -1.030  1.00  0.00     0.240 C 
ATOM     18  O   UNL     1      -2.951   2.704   1.280  1.00  0.00    -0.273 OA
ATOM     19  N   UNL     1      -3.253   1.253  -0.429  1.00  0.00    -0.294 N 
ATOM     20  O   UNL     1      -3.358  -0.107  -2.232  1.00  0.00    -0.273 OA
ATOM     21  H   UNL     1      -3.484   2.033  -1.027  1.00  0.00     0.172 HD
ENDBRANCH   2  13
TORSDOF 3
