REMARK SMILES Cc1cc(Nc2cc(CN3CCOCC3)c3nc(C)c(Cc4ccc(Cl)cc4F)n3n2)n[nH]1
REMARK SMILES IDX 5 1 6 2 31 3 30 4 20 5 18 6 19 7 17 8 16 9 8 10 7 11 4 13
REMARK SMILES IDX 1 14 2 15 3 16 33 17 32 18 9 20 10 21 11 22 15 23 12 24
REMARK SMILES IDX 14 25 13 26 21 27 22 28 23 29 28 30 24 31 27 32 29 33 25 34
REMARK SMILES IDX 26 35
REMARK H PARENT 5 12 33 19
REMARK Flexibility Score: inf
ROOT
ATOM      1  N   UNL     1       0.320   2.445  -1.465  1.00  0.00    -0.322 N 
ATOM      2  C   UNL     1       0.126   1.247  -0.819  1.00  0.00     0.153 C 
ATOM      3  N   UNL     1       1.089   0.376  -1.030  1.00  0.00    -0.148 NA
ATOM      4  N   UNL     1       0.923  -0.817  -0.398  1.00  0.00    -0.215 N 
ATOM      5  C   UNL     1       1.808  -1.869  -0.445  1.00  0.00     0.070 A 
ATOM      6  C   UNL     1       1.241  -2.858   0.340  1.00  0.00     0.062 A 
ATOM      7  C   UNL     1       1.760  -4.209   0.656  1.00  0.00     0.069 C 
ATOM      8  N   UNL     1       0.043  -2.435   0.862  1.00  0.00    -0.232 NA
ATOM      9  C   UNL     1      -0.127  -1.209   0.409  1.00  0.00     0.158 A 
ATOM     10  C   UNL     1      -1.191  -0.290   0.606  1.00  0.00     0.015 C 
ATOM     11  C   UNL     1      -1.074   0.914   0.015  1.00  0.00     0.058 C 
ATOM     12  H   UNL     1       1.135   2.428  -2.063  1.00  0.00     0.170 HD
ENDROOT
BRANCH   1  13
ATOM     13  C   UNL     1      -0.231   3.632  -1.135  1.00  0.00     0.153 A 
ATOM     14  C   UNL     1      -0.673   7.282  -1.521  1.00  0.00     0.066 C 
ATOM     15  C   UNL     1      -0.596   5.831  -1.249  1.00  0.00     0.034 A 
ATOM     16  C   UNL     1       0.123   4.814  -1.836  1.00  0.00     0.071 A 
ATOM     17  N   UNL     1      -1.317   5.230  -0.259  1.00  0.00    -0.281 N 
ATOM     18  N   UNL     1      -1.109   3.909  -0.169  1.00  0.00    -0.158 NA
ATOM     19  H   UNL     1      -1.967   5.659   0.393  1.00  0.00     0.190 HD
ENDBRANCH   1  13
BRANCH  10  20
ATOM     20  C   UNL     1      -2.412  -0.601   1.448  1.00  0.00     0.124 C 
BRANCH  20  21
ATOM     21  N   UNL     1      -3.645  -0.763   0.657  1.00  0.00    -0.294 NA
ATOM     22  C   UNL     1      -4.827  -0.702   1.547  1.00  0.00     0.113 C 
ATOM     23  C   UNL     1      -3.656  -2.020  -0.127  1.00  0.00     0.113 C 
ATOM     24  C   UNL     1      -6.041  -1.419   0.941  1.00  0.00     0.175 C 
ATOM     25  C   UNL     1      -4.444  -3.156   0.545  1.00  0.00     0.175 C 
ATOM     26  O   UNL     1      -5.821  -2.827   0.777  1.00  0.00    -0.379 OA
ENDBRANCH  20  21
ENDBRANCH  10  20
BRANCH   5  27
ATOM     27  C   UNL     1       3.080  -1.830  -1.216  1.00  0.00     0.097 C 
BRANCH  27  28
ATOM     28  C   UNL     1       4.273  -1.497  -0.353  1.00  0.00    -0.006 A 
ATOM     29  C   UNL     1       4.519  -0.177   0.052  1.00  0.00     0.008 A 
ATOM     30  C   UNL     1       5.144  -2.502   0.081  1.00  0.00     0.128 A 
ATOM     31  C   UNL     1       5.616   0.120   0.865  1.00  0.00     0.021 A 
ATOM     32  C   UNL     1       6.239  -2.216   0.890  1.00  0.00     0.060 A 
ATOM     33  F   UNL     1       4.930  -3.775  -0.283  1.00  0.00    -0.207 F 
ATOM     34  C   UNL     1       6.470  -0.901   1.278  1.00  0.00     0.043 A 
ATOM     35  Cl  UNL     1       7.820  -0.531   2.279  1.00  0.00    -0.084 Cl
ENDBRANCH  27  28
ENDBRANCH   5  27
TORSDOF 5
