REMARK SMILES O=c1[nH]c2ccccc2n1CCCN1CCN(C(c2ccccc2)c2ccccc2)CC1
REMARK SMILES IDX 13 1 12 2 11 3 10 4 1 5 2 6 3 7 4 8 9 10 5 11 8 12 6 13 7 14
REMARK SMILES IDX 14 15 15 16 32 17 16 18 31 19 17 20 18 21 19 22 20 23 24 24
REMARK SMILES IDX 21 25 23 26 22 27 25 28 26 29 30 30 27 31 29 32 28 33
REMARK H PARENT 3 9
REMARK Flexibility Score: inf
ROOT
ATOM      1  C   UNL     1       1.598   1.396  -0.307  1.00  0.00     0.086 C 
ENDROOT
BRANCH   1   2
ATOM      2  C   UNL     1       2.818   0.470  -0.229  1.00  0.00     0.038 C 
BRANCH   2   3
ATOM      3  C   UNL     1       3.780   0.749  -1.383  1.00  0.00     0.129 C 
BRANCH   3   4
ATOM      4  N   UNL     1       4.893  -0.164  -1.394  1.00  0.00    -0.292 N 
ATOM      5  O   UNL     1       4.070  -1.861  -2.817  1.00  0.00    -0.248 OA
ATOM      6  C   UNL     1       4.928  -1.390  -2.089  1.00  0.00     0.326 C 
ATOM      7  N   UNL     1       6.158  -1.990  -1.778  1.00  0.00    -0.306 N 
ATOM      8  C   UNL     1       6.850  -1.169  -0.894  1.00  0.00     0.066 A 
ATOM      9  H   UNL     1       6.451  -2.882  -2.138  1.00  0.00     0.171 HD
ATOM     10  C   UNL     1       6.070  -0.040  -0.643  1.00  0.00     0.069 A 
ATOM     11  C   UNL     1       8.081  -1.364  -0.311  1.00  0.00     0.028 A 
ATOM     12  C   UNL     1       6.493   0.951   0.216  1.00  0.00     0.028 A 
ATOM     13  C   UNL     1       8.528  -0.366   0.561  1.00  0.00     0.002 A 
ATOM     14  C   UNL     1       7.743   0.778   0.823  1.00  0.00     0.002 A 
ENDBRANCH   3   4
ENDBRANCH   2   3
ENDBRANCH   1   2
BRANCH   1  15
ATOM     15  N   UNL     1       0.699   1.260   0.848  1.00  0.00    -0.301 NA
ATOM     16  C   UNL     1       0.130  -0.101   0.954  1.00  0.00     0.100 C 
ATOM     17  C   UNL     1      -0.378   2.274   0.825  1.00  0.00     0.100 C 
ATOM     18  C   UNL     1      -1.238  -0.139   1.673  1.00  0.00     0.101 C 
ATOM     19  C   UNL     1      -1.707   1.759   0.230  1.00  0.00     0.101 C 
ATOM     20  N   UNL     1      -2.308   0.640   0.998  1.00  0.00    -0.290 NA
BRANCH  20  21
ATOM     21  C   UNL     1      -3.176  -0.214   0.134  1.00  0.00     0.117 C 
BRANCH  21  22
ATOM     22  C   UNL     1      -4.200   0.586  -0.685  1.00  0.00    -0.026 A 
ATOM     23  C   UNL     1      -5.091   1.487  -0.075  1.00  0.00     0.006 A 
ATOM     24  C   UNL     1      -4.278   0.408  -2.077  1.00  0.00     0.006 A 
ATOM     25  C   UNL     1      -6.027   2.191  -0.835  1.00  0.00     0.000 A 
ATOM     26  C   UNL     1      -5.215   1.114  -2.835  1.00  0.00     0.000 A 
ATOM     27  C   UNL     1      -6.089   2.003  -2.213  1.00  0.00     0.000 A 
ENDBRANCH  21  22
BRANCH  21  28
ATOM     28  C   UNL     1      -3.903  -1.327   0.905  1.00  0.00    -0.026 A 
ATOM     29  C   UNL     1      -4.070  -2.590   0.311  1.00  0.00     0.006 A 
ATOM     30  C   UNL     1      -4.444  -1.113   2.184  1.00  0.00     0.006 A 
ATOM     31  C   UNL     1      -4.742  -3.613   0.985  1.00  0.00     0.000 A 
ATOM     32  C   UNL     1      -5.116  -2.137   2.856  1.00  0.00     0.000 A 
ATOM     33  C   UNL     1      -5.263  -3.386   2.257  1.00  0.00     0.000 A 
ENDBRANCH  21  28
ENDBRANCH  20  21
ENDBRANCH   1  15
TORSDOF 7
