REMARK SMILES CN(C)CCOC(=O)C(c1ccccc1)C1(O)CCCC1
REMARK SMILES IDX 7 1 8 2 6 3 5 4 4 5 2 6 1 7 3 8 9 9 10 10 11 11 15 12 12 13
REMARK SMILES IDX 14 14 13 15 16 16 18 17 21 18 19 19 20 20 17 21
REMARK H PARENT 17 22
REMARK Flexibility Score: inf
ROOT
ATOM      1  C   UNL     1       0.250   0.927  -0.403  1.00  0.00     0.316 C 
ATOM      2  O   UNL     1       0.976   1.484  -1.217  1.00  0.00    -0.251 OA
ENDROOT
BRANCH   1   3
ATOM      3  O   UNL     1       0.619   0.589   0.866  1.00  0.00    -0.464 OA
BRANCH   3   4
ATOM      4  C   UNL     1       1.987   0.874   1.220  1.00  0.00     0.248 C 
BRANCH   4   5
ATOM      5  C   UNL     1       2.912  -0.251   0.727  1.00  0.00     0.125 C 
BRANCH   5   6
ATOM      6  N   UNL     1       4.324  -0.077   1.119  1.00  0.00    -0.306 NA
ATOM      7  C   UNL     1       5.169  -0.996   0.351  1.00  0.00     0.105 C 
ATOM      8  C   UNL     1       4.525  -0.307   2.552  1.00  0.00     0.105 C 
ENDBRANCH   5   6
ENDBRANCH   4   5
ENDBRANCH   3   4
ENDBRANCH   1   3
BRANCH   1   9
ATOM      9  C   UNL     1      -1.180   0.493  -0.704  1.00  0.00     0.161 C 
BRANCH   9  10
ATOM     10  C   UNL     1      -1.210  -1.001  -1.017  1.00  0.00    -0.031 A 
ATOM     11  C   UNL     1      -1.526  -1.983  -0.068  1.00  0.00     0.005 A 
ATOM     12  C   UNL     1      -0.855  -1.423  -2.313  1.00  0.00     0.005 A 
ATOM     13  C   UNL     1      -1.509  -3.338  -0.407  1.00  0.00     0.000 A 
ATOM     14  C   UNL     1      -0.837  -2.778  -2.650  1.00  0.00     0.000 A 
ATOM     15  C   UNL     1      -1.166  -3.736  -1.697  1.00  0.00     0.000 A 
ENDBRANCH   9  10
BRANCH   9  16
ATOM     16  C   UNL     1      -2.190   1.053   0.352  1.00  0.00     0.082 C 
ATOM     17  C   UNL     1      -3.656   0.816  -0.045  1.00  0.00     0.036 C 
ATOM     18  C   UNL     1      -2.173   2.590   0.440  1.00  0.00     0.036 C 
ATOM     19  C   UNL     1      -3.987   1.922  -1.041  1.00  0.00     0.003 C 
ATOM     20  C   UNL     1      -3.028   3.069  -0.727  1.00  0.00     0.003 C 
BRANCH  16  21
ATOM     21  O   UNL     1      -1.986   0.526   1.664  1.00  0.00    -0.389 OA
ATOM     22  H   UNL     1      -1.042   0.634   1.888  1.00  0.00     0.211 HD
ENDBRANCH  16  21
ENDBRANCH   9  16
ENDBRANCH   1   9
TORSDOF 8
