REMARK SMILES Cc1onc(-c2ccccc2)c1-c1ccc(S(N)(=O)=O)cc1
REMARK SMILES IDX 13 1 14 2 15 3 16 4 21 5 22 6 12 7 1 8 2 9 3 10 4 11 5 12
REMARK SMILES IDX 6 13 7 14 11 15 8 16 10 17 9 18 17 19 19 20 20 21 18 22
REMARK H PARENT 18 23 18 24
REMARK Flexibility Score: inf
ROOT
ATOM      1  C   UNL     1       0.531  -0.883   0.266  1.00  0.00    -0.012 A 
ATOM      2  C   UNL     1       0.695  -0.305  -1.001  1.00  0.00     0.010 A 
ATOM      3  C   UNL     1       1.838   0.443  -1.293  1.00  0.00     0.022 A 
ATOM      4  C   UNL     1       2.814   0.621  -0.310  1.00  0.00     0.082 A 
ATOM      5  C   UNL     1       2.668   0.042   0.954  1.00  0.00     0.022 A 
ATOM      6  C   UNL     1       1.524  -0.706   1.241  1.00  0.00     0.010 A 
ENDROOT
BRANCH   1   7
ATOM      7  C   UNL     1      -0.661  -1.650   0.563  1.00  0.00     0.052 A 
ATOM      8  C   UNL     1       0.400  -3.991   1.150  1.00  0.00     0.091 C 
ATOM      9  C   UNL     1      -0.651  -2.980   0.925  1.00  0.00     0.142 A 
ATOM     10  O   UNL     1      -1.930  -3.408   1.079  1.00  0.00    -0.360 OA
ATOM     11  N   UNL     1      -2.803  -2.380   0.804  1.00  0.00    -0.079 NA
ATOM     12  C   UNL     1      -2.050  -1.310   0.495  1.00  0.00     0.121 A 
BRANCH  12  13
ATOM     13  C   UNL     1      -2.675  -0.033   0.151  1.00  0.00     0.004 A 
ATOM     14  C   UNL     1      -2.131   1.183   0.588  1.00  0.00     0.010 A 
ATOM     15  C   UNL     1      -3.846  -0.009  -0.622  1.00  0.00     0.010 A 
ATOM     16  C   UNL     1      -2.734   2.396   0.244  1.00  0.00     0.001 A 
ATOM     17  C   UNL     1      -4.448   1.203  -0.965  1.00  0.00     0.001 A 
ATOM     18  C   UNL     1      -3.890   2.405  -0.534  1.00  0.00     0.000 A 
ENDBRANCH  12  13
ENDBRANCH   1   7
BRANCH   4  19
ATOM     19  S   UNL     1       4.277   1.542  -0.687  1.00  0.00     0.238 S 
ATOM     20  O   UNL     1       4.477   1.550  -2.117  1.00  0.00    -0.207 OA
ATOM     21  O   UNL     1       5.321   1.175   0.240  1.00  0.00    -0.207 OA
BRANCH  19  22
ATOM     22  N   UNL     1       3.819   3.103  -0.273  1.00  0.00    -0.225 NA
ATOM     23  H   UNL     1       4.408   3.445   0.487  1.00  0.00     0.137 HD
ATOM     24  H   UNL     1       3.833   3.698  -1.102  1.00  0.00     0.137 HD
ENDBRANCH  19  22
ENDBRANCH   4  19
TORSDOF 4
