REMARK SMILES Sc1ncnc2[nH]ncc12
REMARK SMILES IDX 2 1 3 2 4 3 5 4 6 5 7 6 8 7 9 8 10 9 1 11
REMARK H PARENT 7 10 1 12
REMARK Flexibility Score: inf
ROOT
ATOM      1  C   UNL     1      -1.320   0.151  -0.484  1.00  0.00     0.107 A 
ATOM      2  N   UNL     1      -1.792  -1.113  -0.380  1.00  0.00    -0.229 NA
ATOM      3  C   UNL     1      -0.964  -2.062   0.094  1.00  0.00     0.225 A 
ATOM      4  N   UNL     1       0.314  -1.921   0.491  1.00  0.00    -0.217 NA
ATOM      5  C   UNL     1       0.726  -0.650   0.362  1.00  0.00     0.159 A 
ATOM      6  N   UNL     1       1.963  -0.162   0.670  1.00  0.00    -0.261 N 
ATOM      7  N   UNL     1       2.095   1.161   0.435  1.00  0.00    -0.182 NA
ATOM      8  C   UNL     1       0.893   1.509  -0.040  1.00  0.00     0.148 A 
ATOM      9  C   UNL     1      -0.008   0.424  -0.107  1.00  0.00     0.071 A 
ATOM     10  H   UNL     1       2.750  -0.681   1.040  1.00  0.00     0.192 HD
ENDROOT
BRANCH   1  11
ATOM     11  S   UNL     1      -2.392   1.405  -1.101  1.00  0.00    -0.123 SA
ATOM     12  H   UNL     1      -1.616   2.461  -0.826  1.00  0.00     0.110 HD
ENDBRANCH   1  11
TORSDOF 1
