REMARK SMILES CCS(=O)(=O)CCn1c([N+](=O)[O-])cnc1C
REMARK SMILES IDX 6 1 3 2 4 3 5 4 2 5 1 6 7 7 8 8 9 9 15 10 13 11 14 12 16 13
REMARK SMILES IDX 10 14 11 15 12 16
REMARK H PARENT
REMARK Flexibility Score: inf
ROOT
ATOM      1  C   UNL     1       0.594  -0.378   0.116  1.00  0.00     0.183 C 
ENDROOT
BRANCH   1   2
ATOM      2  S   UNL     1       1.874  -1.413  -0.556  1.00  0.00     0.153 S 
ATOM      3  O   UNL     1       2.089  -0.991  -1.927  1.00  0.00    -0.229 OA
ATOM      4  O   UNL     1       1.521  -2.788  -0.259  1.00  0.00    -0.229 OA
BRANCH   2   5
ATOM      5  C   UNL     1       3.328  -1.014   0.401  1.00  0.00     0.133 C 
ATOM      6  C   UNL     1       3.768   0.427   0.251  1.00  0.00     0.021 C 
ENDBRANCH   2   5
ENDBRANCH   1   2
BRANCH   1   7
ATOM      7  C   UNL     1      -0.751  -0.803  -0.448  1.00  0.00     0.260 C 
BRANCH   7   8
ATOM      8  N   UNL     1      -1.801   0.162  -0.161  1.00  0.00    -0.209 N 
ATOM      9  C   UNL     1      -2.646   0.223   0.918  1.00  0.00     0.342 A 
ATOM     10  C   UNL     1      -2.172   1.197  -1.007  1.00  0.00     0.193 A 
ATOM     11  C   UNL     1      -3.505   1.264   0.680  1.00  0.00     0.218 A 
ATOM     12  N   UNL     1      -3.191   1.870  -0.507  1.00  0.00    -0.213 NA
ATOM     13  C   UNL     1      -1.511   1.497  -2.306  1.00  0.00     0.117 C 
BRANCH   9  14
ATOM     14  N   UNL     1      -2.615  -0.633   2.051  1.00  0.00    -0.026 N 
ATOM     15  O   UNL     1      -1.558  -1.232   2.282  1.00  0.00    -0.358 OA
ATOM     16  O   UNL     1      -3.643  -0.687   2.733  1.00  0.00    -0.358 OA
ENDBRANCH   9  14
ENDBRANCH   7   8
ENDBRANCH   1   7
TORSDOF 5
