REMARK SMILES COc1nc(C)cnc1NS(=O)(=O)c1cccnc1-c1ccc(-c2nnco2)cc1
REMARK SMILES IDX 11 1 12 2 13 3 10 4 9 6 3 7 4 8 5 9 8 10 6 11 7 12 2 13 1 14
REMARK SMILES IDX 14 15 15 16 19 17 16 18 18 19 17 20 20 21 21 22 30 23 22 24
REMARK SMILES IDX 29 25 23 26 24 27 25 28 28 29 26 30 27 31
REMARK H PARENT 10 5
REMARK Flexibility Score: inf
ROOT
ATOM      1  S   UNL     1      -0.580   1.774  -1.870  1.00  0.00     0.265 S 
ATOM      2  O   UNL     1      -1.900   2.161  -2.329  1.00  0.00    -0.201 OA
ATOM      3  O   UNL     1       0.530   1.803  -2.801  1.00  0.00    -0.201 OA
ENDROOT
BRANCH   1   4
ATOM      4  N   UNL     1      -0.670   0.221  -1.279  1.00  0.00    -0.259 N 
ATOM      5  H   UNL     1      -0.293  -0.481  -1.912  1.00  0.00     0.182 HD
BRANCH   4   6
ATOM      6  C   UNL     1      -1.811  -0.147  -0.533  1.00  0.00     0.203 A 
ATOM      7  C   UNL     1      -2.428  -1.389  -0.722  1.00  0.00     0.258 A 
ATOM      8  N   UNL     1      -3.472  -1.803   0.036  1.00  0.00    -0.214 NA
ATOM      9  C   UNL     1      -3.872  -0.939   1.001  1.00  0.00     0.060 A 
ATOM     10  N   UNL     1      -2.182   0.701   0.447  1.00  0.00    -0.232 NA
ATOM     11  C   UNL     1      -5.025  -1.339   1.867  1.00  0.00     0.068 C 
ATOM     12  C   UNL     1      -3.231   0.284   1.196  1.00  0.00     0.137 A 
BRANCH   7  13
ATOM     13  O   UNL     1      -1.925  -2.211  -1.717  1.00  0.00    -0.478 OA
ATOM     14  C   UNL     1      -2.635  -3.440  -1.832  1.00  0.00     0.280 C 
ENDBRANCH   7  13
ENDBRANCH   4   6
ENDBRANCH   1   4
BRANCH   1  15
ATOM     15  C   UNL     1      -0.131   2.794  -0.505  1.00  0.00     0.114 A 
ATOM     16  C   UNL     1      -0.885   3.947  -0.252  1.00  0.00     0.026 A 
ATOM     17  C   UNL     1       0.936   2.485   0.334  1.00  0.00     0.091 A 
ATOM     18  C   UNL     1      -0.555   4.759   0.827  1.00  0.00     0.022 A 
ATOM     19  N   UNL     1       1.258   3.278   1.397  1.00  0.00    -0.255 NA
ATOM     20  C   UNL     1       0.516   4.385   1.616  1.00  0.00     0.112 A 
BRANCH  17  21
ATOM     21  C   UNL     1       1.810   1.312   0.213  1.00  0.00     0.002 A 
ATOM     22  C   UNL     1       2.809   1.239  -0.768  1.00  0.00     0.011 A 
ATOM     23  C   UNL     1       1.679   0.237   1.105  1.00  0.00     0.011 A 
ATOM     24  C   UNL     1       3.631   0.110  -0.875  1.00  0.00     0.014 A 
ATOM     25  C   UNL     1       2.499  -0.892   0.999  1.00  0.00     0.014 A 
ATOM     26  C   UNL     1       3.484  -0.971   0.005  1.00  0.00     0.039 A 
BRANCH  26  27
ATOM     27  C   UNL     1       4.321  -2.161  -0.087  1.00  0.00     0.247 A 
ATOM     28  N   UNL     1       4.298  -3.273   0.623  1.00  0.00    -0.108 NA
ATOM     29  O   UNL     1       5.298  -2.178  -1.052  1.00  0.00    -0.423 OA
ATOM     30  N   UNL     1       5.301  -4.080   0.124  1.00  0.00    -0.116 NA
ATOM     31  C   UNL     1       5.859  -3.402  -0.850  1.00  0.00     0.333 A 
ENDBRANCH  26  27
ENDBRANCH  17  21
ENDBRANCH   1  15
TORSDOF 6
