REMARK SMILES CNCCc1ccccn1
REMARK SMILES IDX 3 1 2 2 1 3 4 5 5 6 6 7 10 8 7 9 9 10 8 11
REMARK H PARENT 2 4
REMARK Flexibility Score: inf
ROOT
ATOM      1  C   UNL     1      -1.166  -1.013  -0.043  1.00  0.00     0.087 C 
ENDROOT
BRANCH   1   2
ATOM      2  N   UNL     1      -2.555  -1.261  -0.455  1.00  0.00    -0.319 NA
ATOM      3  C   UNL     1      -3.512  -0.509   0.345  1.00  0.00     0.101 C 
ATOM      4  H   UNL     1      -2.674  -1.026  -1.439  1.00  0.00     0.122 HD
ENDBRANCH   1   2
BRANCH   1   5
ATOM      5  C   UNL     1      -0.619   0.352  -0.477  1.00  0.00     0.071 C 
BRANCH   5   6
ATOM      6  C   UNL     1       0.833   0.499  -0.100  1.00  0.00     0.042 A 
ATOM      7  C   UNL     1       1.838   0.069  -0.964  1.00  0.00     0.024 A 
ATOM      8  N   UNL     1       1.100   1.039   1.114  1.00  0.00    -0.261 NA
ATOM      9  C   UNL     1       3.166   0.205  -0.570  1.00  0.00     0.003 A 
ATOM     10  C   UNL     1       2.398   1.159   1.469  1.00  0.00     0.111 A 
ATOM     11  C   UNL     1       3.456   0.761   0.669  1.00  0.00     0.020 A 
ENDBRANCH   5   6
ENDBRANCH   1   5
TORSDOF 3
