REMARK SMILES O=C(NCCN1CCOCC1)c1ccc(Cl)cc1
REMARK SMILES IDX 4 1 3 2 1 3 2 4 12 6 13 7 18 8 14 9 17 10 15 11 16 12 5 13
REMARK SMILES IDX 6 14 7 15 11 16 8 17 10 18 9 19
REMARK H PARENT 3 5
REMARK Flexibility Score: inf
ROOT
ATOM      1  C   UNL     1      -0.509   0.271   0.499  1.00  0.00     0.131 C 
ENDROOT
BRANCH   1   2
ATOM      2  N   UNL     1       0.914  -0.011   0.585  1.00  0.00    -0.351 N 
ATOM      3  O   UNL     1       1.430   1.100  -1.355  1.00  0.00    -0.269 OA
ATOM      4  C   UNL     1       1.782   0.425  -0.395  1.00  0.00     0.251 C 
ATOM      5  H   UNL     1       1.211  -0.740   1.219  1.00  0.00     0.163 HD
BRANCH   4   6
ATOM      6  C   UNL     1       3.202  -0.004  -0.263  1.00  0.00     0.039 A 
ATOM      7  C   UNL     1       3.787  -0.264   0.984  1.00  0.00     0.015 A 
ATOM      8  C   UNL     1       3.973  -0.119  -1.428  1.00  0.00     0.015 A 
ATOM      9  C   UNL     1       5.127  -0.660   1.058  1.00  0.00     0.021 A 
ATOM     10  C   UNL     1       5.311  -0.516  -1.351  1.00  0.00     0.021 A 
ATOM     11  C   UNL     1       5.881  -0.788  -0.108  1.00  0.00     0.041 A 
ATOM     12  Cl  UNL     1       7.527  -1.275  -0.011  1.00  0.00    -0.084 Cl
ENDBRANCH   4   6
ENDBRANCH   1   2
BRANCH   1  13
ATOM     13  C   UNL     1      -1.236  -0.680  -0.476  1.00  0.00     0.106 C 
BRANCH  13  14
ATOM     14  N   UNL     1      -2.690  -0.528  -0.606  1.00  0.00    -0.297 NA
ATOM     15  C   UNL     1      -3.450  -0.709   0.641  1.00  0.00     0.113 C 
ATOM     16  C   UNL     1      -3.080   0.703  -1.316  1.00  0.00     0.113 C 
ATOM     17  C   UNL     1      -4.068   0.594   1.175  1.00  0.00     0.175 C 
ATOM     18  C   UNL     1      -4.578   0.993  -1.132  1.00  0.00     0.175 C 
ATOM     19  O   UNL     1      -4.938   1.238   0.236  1.00  0.00    -0.379 OA
ENDBRANCH  13  14
ENDBRANCH   1  13
TORSDOF 4
