REMARK SMILES CNc1ncc(-c2ccc3c(=O)c(C(=O)O)cn(C4CC4)c3c2C)cc1C
REMARK SMILES IDX 7 1 8 2 9 3 10 4 11 5 12 6 13 7 17 8 18 9 22 10 23 11 24 12
REMARK SMILES IDX 6 13 3 14 4 15 26 16 5 17 25 18 27 19 2 20 1 21 19 23 20 24
REMARK SMILES IDX 21 25 14 26 15 27 16 28
REMARK H PARENT 2 22 16 29
REMARK Flexibility Score: inf
ROOT
ATOM      1  C   UNL     1       0.582  -0.340   0.738  1.00  0.00    -0.012 A 
ATOM      2  C   UNL     1       0.347  -0.404   2.120  1.00  0.00     0.010 A 
ATOM      3  C   UNL     1      -0.937  -0.588   2.616  1.00  0.00     0.015 A 
ATOM      4  C   UNL     1      -2.019  -0.652   1.735  1.00  0.00     0.047 A 
ATOM      5  C   UNL     1      -3.374  -0.877   2.308  1.00  0.00     0.203 C 
ATOM      6  O   UNL     1      -3.528  -0.887   3.525  1.00  0.00    -0.288 OA
ATOM      7  C   UNL     1      -4.502  -1.073   1.368  1.00  0.00     0.124 C 
ATOM      8  C   UNL     1      -4.243  -0.837   0.074  1.00  0.00     0.106 C 
ATOM      9  N   UNL     1      -3.024  -0.472  -0.474  1.00  0.00    -0.343 N 
ATOM     10  C   UNL     1      -1.846  -0.516   0.337  1.00  0.00     0.056 A 
ATOM     11  C   UNL     1      -0.516  -0.454  -0.166  1.00  0.00    -0.019 A 
ATOM     12  C   UNL     1      -0.219  -0.570  -1.644  1.00  0.00     0.047 C 
ENDROOT
BRANCH   1  13
ATOM     13  C   UNL     1       1.968  -0.157   0.283  1.00  0.00     0.001 A 
ATOM     14  C   UNL     1       4.615   0.115  -0.541  1.00  0.00     0.128 A 
ATOM     15  N   UNL     1       4.205  -1.058  -0.014  1.00  0.00    -0.239 NA
ATOM     16  C   UNL     1       3.734   1.195  -0.699  1.00  0.00    -0.008 A 
ATOM     17  C   UNL     1       2.915  -1.168   0.383  1.00  0.00     0.122 A 
ATOM     18  C   UNL     1       2.406   1.047  -0.270  1.00  0.00     0.017 A 
ATOM     19  C   UNL     1       4.175   2.493  -1.311  1.00  0.00     0.048 C 
BRANCH  14  20
ATOM     20  N   UNL     1       5.946   0.248  -0.976  1.00  0.00    -0.373 N 
ATOM     21  C   UNL     1       6.777  -0.922  -0.742  1.00  0.00     0.141 C 
ATOM     22  H   UNL     1       6.345   1.079  -0.551  1.00  0.00     0.161 HD
ENDBRANCH  14  20
ENDBRANCH   1  13
BRANCH   9  23
ATOM     23  C   UNL     1      -3.087   0.263  -1.758  1.00  0.00     0.087 C 
ATOM     24  C   UNL     1      -4.071   1.393  -1.979  1.00  0.00     0.027 C 
ATOM     25  C   UNL     1      -2.611   1.690  -1.895  1.00  0.00     0.027 C 
ENDBRANCH   9  23
BRANCH   7  26
ATOM     26  C   UNL     1      -5.844  -1.478   1.821  1.00  0.00     0.341 C 
ATOM     27  O   UNL     1      -6.143  -1.972   2.892  1.00  0.00    -0.246 OA
BRANCH  26  28
ATOM     28  O   UNL     1      -6.805  -1.262   0.898  1.00  0.00    -0.477 OA
ATOM     29  H   UNL     1      -7.617  -1.570   1.354  1.00  0.00     0.297 HD
ENDBRANCH  26  28
ENDBRANCH   7  26
TORSDOF 5
