REMARK SMILES Clc1ccc2c(c1)C(N1CCNCC1)=Nc1ccccc1O2
REMARK SMILES IDX 1 1 2 2 3 3 4 4 5 5 6 6 7 7 8 8 9 9 10 10 11 11 12 12 13 13
REMARK SMILES IDX 14 14 15 15 16 16 17 17 18 18 19 19 20 20 21 21 22 22
REMARK H PARENT 12 23
REMARK Flexibility Score: inf
ROOT
ATOM      1  Cl  UNL     1       1.070   5.059  -0.804  1.00  0.00    -0.084 Cl
ATOM      2  C   UNL     1       1.314   3.478  -0.172  1.00  0.00     0.042 A 
ATOM      3  C   UNL     1       2.370   3.241   0.707  1.00  0.00     0.024 A 
ATOM      4  C   UNL     1       2.571   1.958   1.217  1.00  0.00     0.049 A 
ATOM      5  C   UNL     1       1.717   0.917   0.840  1.00  0.00     0.138 A 
ATOM      6  C   UNL     1       0.639   1.162  -0.012  1.00  0.00     0.061 A 
ATOM      7  C   UNL     1       0.448   2.448  -0.533  1.00  0.00     0.036 A 
ATOM      8  C   UNL     1      -0.346   0.087  -0.356  1.00  0.00     0.140 C 
ATOM      9  N   UNL     1      -1.701   0.445  -0.416  1.00  0.00    -0.353 N 
ATOM     10  C   UNL     1      -2.649  -0.465  -1.096  1.00  0.00     0.133 C 
ATOM     11  C   UNL     1      -3.390  -1.339  -0.068  1.00  0.00     0.102 C 
ATOM     12  N   UNL     1      -4.147  -0.586   0.960  1.00  0.00    -0.313 NA
ATOM     13  C   UNL     1      -3.794   0.844   0.940  1.00  0.00     0.102 C 
ATOM     14  C   UNL     1      -2.289   1.136   0.760  1.00  0.00     0.133 C 
ATOM     15  N   UNL     1      -0.008  -1.146  -0.615  1.00  0.00    -0.227 NA
ATOM     16  C   UNL     1       1.309  -1.624  -0.571  1.00  0.00     0.108 A 
ATOM     17  C   UNL     1       1.671  -2.596  -1.509  1.00  0.00     0.032 A 
ATOM     18  C   UNL     1       2.936  -3.192  -1.483  1.00  0.00     0.003 A 
ATOM     19  C   UNL     1       3.855  -2.832  -0.499  1.00  0.00     0.004 A 
ATOM     20  C   UNL     1       3.510  -1.873   0.451  1.00  0.00     0.049 A 
ATOM     21  C   UNL     1       2.251  -1.266   0.403  1.00  0.00     0.153 A 
ATOM     22  O   UNL     1       1.978  -0.323   1.366  1.00  0.00    -0.454 OA
ATOM     23  H   UNL     1      -3.899  -0.978   1.869  1.00  0.00     0.122 HD
ENDROOT
TORSDOF 0
