REMARK SMILES c1ccc([C@H]2CN3CCSC3=N2)cc1
REMARK SMILES IDX 5 1 6 2 7 3 8 4 9 5 10 6 11 7 12 8 4 9 1 10 2 11 14 12 3 13
REMARK SMILES IDX 13 14
REMARK H PARENT
REMARK Flexibility Score: inf
ROOT
ATOM      1  C   UNL     1      -0.124   0.334   1.274  1.00  0.00     0.158 C 
ATOM      2  C   UNL     1       0.865  -0.834   0.961  1.00  0.00     0.150 C 
ATOM      3  N   UNL     1       1.797  -0.174   0.075  1.00  0.00    -0.348 N 
ATOM      4  C   UNL     1       3.180  -0.574  -0.068  1.00  0.00     0.130 C 
ATOM      5  C   UNL     1       3.853   0.573  -0.837  1.00  0.00     0.099 C 
ATOM      6  S   UNL     1       2.981   2.095  -0.295  1.00  0.00    -0.087 SA
ATOM      7  C   UNL     1       1.640   1.164   0.278  1.00  0.00     0.160 C 
ATOM      8  N   UNL     1       0.606   1.609   0.920  1.00  0.00    -0.252 NA
ENDROOT
BRANCH   1   9
ATOM      9  C   UNL     1      -1.453   0.172   0.559  1.00  0.00    -0.022 A 
ATOM     10  C   UNL     1      -3.912  -0.215  -0.748  1.00  0.00     0.000 A 
ATOM     11  C   UNL     1      -3.684  -0.801   0.494  1.00  0.00     0.000 A 
ATOM     12  C   UNL     1      -2.920   0.563  -1.342  1.00  0.00     0.000 A 
ATOM     13  C   UNL     1      -2.462  -0.610   1.144  1.00  0.00     0.006 A 
ATOM     14  C   UNL     1      -1.698   0.754  -0.693  1.00  0.00     0.006 A 
ENDBRANCH   1   9
TORSDOF 1
