REMARK SMILES Cc1cccn2c(=O)c(-c3nnn[nH]3)cnc12
REMARK SMILES IDX 1 1 2 2 3 3 4 4 5 5 6 6 7 7 8 8 9 9 15 10 16 11 17 12 10 13
REMARK SMILES IDX 11 14 14 15 12 16 13 17
REMARK H PARENT 14 18
REMARK Flexibility Score: inf
ROOT
ATOM      1  C   UNL     1      -3.203   1.528  -0.856  1.00  0.00     0.048 C 
ATOM      2  C   UNL     1      -2.509   0.381  -0.190  1.00  0.00    -0.008 C 
ATOM      3  C   UNL     1      -3.158  -0.622   0.421  1.00  0.00     0.009 C 
ATOM      4  C   UNL     1      -2.443  -1.699   1.046  1.00  0.00     0.019 C 
ATOM      5  C   UNL     1      -1.106  -1.713   1.024  1.00  0.00     0.096 C 
ATOM      6  N   UNL     1      -0.370  -0.707   0.409  1.00  0.00    -0.267 N 
ATOM      7  C   UNL     1       1.019  -0.785   0.425  1.00  0.00     0.269 C 
ATOM      8  O   UNL     1       1.664  -1.697   0.953  1.00  0.00    -0.268 OA
ATOM      9  C   UNL     1       1.748   0.322  -0.249  1.00  0.00     0.105 C 
ATOM     10  C   UNL     1       1.002   1.284  -0.805  1.00  0.00     0.131 C 
ATOM     11  N   UNL     1      -0.364   1.331  -0.802  1.00  0.00    -0.237 NA
ATOM     12  C   UNL     1      -1.005   0.367  -0.215  1.00  0.00     0.142 C 
ENDROOT
BRANCH   9  13
ATOM     13  C   UNL     1       3.160   0.382  -0.316  1.00  0.00     0.186 A 
ATOM     14  N   UNL     1       3.987   1.259  -0.856  1.00  0.00    -0.108 NA
ATOM     15  N   UNL     1       3.930  -0.601   0.251  1.00  0.00    -0.239 N 
ATOM     16  N   UNL     1       5.259   0.799  -0.610  1.00  0.00    -0.024 NA
ATOM     17  N   UNL     1       5.230  -0.339   0.067  1.00  0.00    -0.048 NA
ATOM     18  H   UNL     1       3.635  -1.434   0.753  1.00  0.00     0.194 HD
ENDBRANCH   9  13
TORSDOF 1
