REMARK SMILES CC(C)NCC(O)c1ccc2ccccc2c1
REMARK SMILES IDX 5 1 4 2 2 4 1 5 3 6 6 7 7 8 8 10 9 11 17 12 10 13 16 14
REMARK SMILES IDX 11 15 15 16 12 17 14 18 13 19
REMARK H PARENT 4 3 7 9
REMARK Flexibility Score: inf
ROOT
ATOM      1  C   UNL     1      -1.602   0.214  -0.023  1.00  0.00     0.117 C 
ENDROOT
BRANCH   1   2
ATOM      2  N   UNL     1      -2.923   0.534  -0.597  1.00  0.00    -0.312 NA
ATOM      3  H   UNL     1      -3.133  -0.205  -1.276  1.00  0.00     0.123 HD
BRANCH   2   4
ATOM      4  C   UNL     1      -3.989   0.589   0.411  1.00  0.00     0.047 C 
ATOM      5  C   UNL     1      -5.334   0.668  -0.316  1.00  0.00     0.024 C 
ATOM      6  C   UNL     1      -3.834   1.792   1.342  1.00  0.00     0.024 C 
ENDBRANCH   2   4
ENDBRANCH   1   2
BRANCH   1   7
ATOM      7  C   UNL     1      -0.594  -0.134  -1.145  1.00  0.00     0.158 C 
BRANCH   7   8
ATOM      8  O   UNL     1      -1.062  -1.284  -1.865  1.00  0.00    -0.387 OA
ATOM      9  H   UNL     1      -0.303  -1.615  -2.376  1.00  0.00     0.211 HD
ENDBRANCH   7   8
BRANCH   7  10
ATOM     10  C   UNL     1       0.794  -0.404  -0.605  1.00  0.00    -0.018 A 
ATOM     11  C   UNL     1       1.084  -1.587   0.087  1.00  0.00     0.007 A 
ATOM     12  C   UNL     1       1.815   0.544  -0.777  1.00  0.00     0.015 A 
ATOM     13  C   UNL     1       2.366  -1.822   0.588  1.00  0.00     0.009 A 
ATOM     14  C   UNL     1       3.110   0.322  -0.277  1.00  0.00    -0.018 A 
ATOM     15  C   UNL     1       3.389  -0.879   0.414  1.00  0.00    -0.018 A 
ATOM     16  C   UNL     1       4.134   1.267  -0.449  1.00  0.00     0.009 A 
ATOM     17  C   UNL     1       4.683  -1.100   0.913  1.00  0.00     0.009 A 
ATOM     18  C   UNL     1       5.415   1.032   0.052  1.00  0.00     0.001 A 
ATOM     19  C   UNL     1       5.689  -0.151   0.733  1.00  0.00     0.001 A 
ENDBRANCH   7  10
ENDBRANCH   1   7
TORSDOF 5
