REMARK SMILES CC(Oc1c(Cl)cccc1Cl)C1=NCCN1
REMARK SMILES IDX 1 1 2 2 3 3 4 4 5 5 10 6 6 7 7 8 9 9 11 10 8 11 12 12 13 13
REMARK SMILES IDX 16 14 14 15 15 16
REMARK H PARENT 16 17
REMARK Flexibility Score: inf
ROOT
ATOM      1  C   UNL     1       0.339   1.445   2.151  1.00  0.00     0.062 C 
ATOM      2  C   UNL     1      -0.112   0.719   0.890  1.00  0.00     0.235 C 
ENDROOT
BRANCH   2   3
ATOM      3  O   UNL     1       0.762  -0.398   0.642  1.00  0.00    -0.480 OA
BRANCH   3   4
ATOM      4  C   UNL     1       1.517  -0.226  -0.492  1.00  0.00     0.157 A 
ATOM      5  C   UNL     1       0.976  -0.421  -1.771  1.00  0.00     0.084 A 
ATOM      6  C   UNL     1       2.882   0.063  -0.368  1.00  0.00     0.084 A 
ATOM      7  Cl  UNL     1      -0.660  -0.921  -2.007  1.00  0.00    -0.080 Cl
ATOM      8  C   UNL     1       1.775  -0.256  -2.908  1.00  0.00     0.024 A 
ATOM      9  C   UNL     1       3.679   0.223  -1.507  1.00  0.00     0.024 A 
ATOM     10  Cl  UNL     1       3.640   0.215   1.176  1.00  0.00    -0.080 Cl
ATOM     11  C   UNL     1       3.122   0.077  -2.776  1.00  0.00     0.003 A 
ENDBRANCH   3   4
ENDBRANCH   2   3
BRANCH   2  12
ATOM     12  C   UNL     1      -1.514   0.168   1.125  1.00  0.00     0.138 C 
ATOM     13  N   UNL     1      -2.585   0.858   0.817  1.00  0.00    -0.267 NA
ATOM     14  N   UNL     1      -1.720  -1.085   1.657  1.00  0.00    -0.369 N 
ATOM     15  C   UNL     1      -3.711  -0.054   1.177  1.00  0.00     0.165 C 
ATOM     16  C   UNL     1      -3.094  -1.438   1.402  1.00  0.00     0.138 C 
ATOM     17  H   UNL     1      -1.001  -1.767   1.433  1.00  0.00     0.161 HD
ENDBRANCH   2  12
TORSDOF 3
