REMARK SMILES CCCCOc1cc(C(=O)NCCN(CC)CC)c2ccccc2n1
REMARK SMILES IDX 6 1 7 2 8 3 19 4 20 5 21 6 22 7 23 8 24 9 25 10 5 11 4 12
REMARK SMILES IDX 3 13 2 14 1 15 9 16 10 17 11 18 12 20 13 21 14 22 15 23
REMARK SMILES IDX 16 24 17 25 18 26
REMARK H PARENT 11 19
REMARK Flexibility Score: inf
ROOT
ATOM      1  C   UNL     1       2.885  -0.222   0.457  1.00  0.00     0.214 A 
ATOM      2  C   UNL     1       1.845   0.572   0.878  1.00  0.00     0.083 A 
ATOM      3  C   UNL     1       0.615  -0.047   1.075  1.00  0.00     0.054 A 
ATOM      4  C   UNL     1       0.450  -1.436   0.890  1.00  0.00     0.013 A 
ATOM      5  C   UNL     1      -0.753  -2.145   1.132  1.00  0.00     0.011 A 
ATOM      6  C   UNL     1      -0.834  -3.517   0.908  1.00  0.00     0.001 A 
ATOM      7  C   UNL     1       0.284  -4.200   0.449  1.00  0.00     0.002 A 
ATOM      8  C   UNL     1       1.478  -3.507   0.228  1.00  0.00     0.029 A 
ATOM      9  C   UNL     1       1.586  -2.140   0.446  1.00  0.00     0.075 A 
ATOM     10  N   UNL     1       2.772  -1.547   0.225  1.00  0.00    -0.213 NA
ENDROOT
BRANCH   1  11
ATOM     11  O   UNL     1       4.093   0.413   0.254  1.00  0.00    -0.478 OA
BRANCH  11  12
ATOM     12  C   UNL     1       5.144  -0.476  -0.132  1.00  0.00     0.231 C 
BRANCH  12  13
ATOM     13  C   UNL     1       6.437   0.326  -0.290  1.00  0.00     0.041 C 
BRANCH  13  14
ATOM     14  C   UNL     1       6.346   1.359  -1.415  1.00  0.00     0.000 C 
ATOM     15  C   UNL     1       7.656   2.111  -1.587  1.00  0.00     0.004 C 
ENDBRANCH  13  14
ENDBRANCH  12  13
ENDBRANCH  11  12
ENDBRANCH   1  11
BRANCH   3  16
ATOM     16  C   UNL     1      -0.505   0.824   1.474  1.00  0.00     0.252 C 
ATOM     17  O   UNL     1      -0.533   1.312   2.595  1.00  0.00    -0.269 OA
ATOM     18  N   UNL     1      -1.441   1.044   0.489  1.00  0.00    -0.351 N 
ATOM     19  H   UNL     1      -1.347   0.578  -0.403  1.00  0.00     0.163 HD
BRANCH  18  20
ATOM     20  C   UNL     1      -2.623   1.853   0.736  1.00  0.00     0.131 C 
BRANCH  20  21
ATOM     21  C   UNL     1      -3.789   1.055   1.363  1.00  0.00     0.105 C 
BRANCH  21  22
ATOM     22  N   UNL     1      -4.721   0.341   0.465  1.00  0.00    -0.302 NA
BRANCH  22  23
ATOM     23  C   UNL     1      -5.888   1.137   0.070  1.00  0.00     0.081 C 
ATOM     24  C   UNL     1      -5.636   2.287  -0.898  1.00  0.00     0.021 C 
ENDBRANCH  22  23
BRANCH  22  25
ATOM     25  C   UNL     1      -4.073  -0.415  -0.604  1.00  0.00     0.081 C 
ATOM     26  C   UNL     1      -5.002  -1.399  -1.311  1.00  0.00     0.021 C 
ENDBRANCH  22  25
ENDBRANCH  21  22
ENDBRANCH  20  21
ENDBRANCH  18  20
ENDBRANCH   3  16
TORSDOF 10
