REMARK SMILES Cc1c(-c2ccccc2)oc2c(C(=O)OCCN3CCCCC3)cccc2c1=O
REMARK SMILES IDX 15 1 13 2 14 3 12 4 1 5 2 6 3 7 28 8 10 9 27 10 29 11 11 12
REMARK SMILES IDX 26 13 25 14 24 15 4 16 5 17 9 18 6 19 8 20 7 21 16 22 17 23
REMARK SMILES IDX 18 24 19 25 23 26 20 27 22 28 21 29
REMARK H PARENT
REMARK Flexibility Score: inf
ROOT
ATOM      1  O   UNL     1      -0.546   1.652  -2.622  1.00  0.00    -0.461 OA
ENDROOT
BRANCH   1   2
ATOM      2  C   UNL     1      -1.585   1.242  -1.857  1.00  0.00     0.342 C 
ATOM      3  O   UNL     1      -2.168   1.886  -1.002  1.00  0.00    -0.246 OA
BRANCH   2   4
ATOM      4  C   UNL     1      -1.910  -0.151  -2.213  1.00  0.00     0.103 A 
ATOM      5  C   UNL     1      -2.494  -4.023   1.954  1.00  0.00     0.053 C 
ATOM      6  C   UNL     1      -2.271  -2.972   0.905  1.00  0.00     0.040 C 
ATOM      7  C   UNL     1      -1.880  -1.696   1.091  1.00  0.00     0.141 C 
ATOM      8  C   UNL     1      -2.549  -3.410  -0.488  1.00  0.00     0.196 C 
ATOM      9  O   UNL     1      -1.758  -0.756   0.083  1.00  0.00    -0.455 OA
ATOM     10  C   UNL     1      -2.397  -2.409  -1.553  1.00  0.00     0.066 A 
ATOM     11  O   UNL     1      -2.899  -4.557  -0.751  1.00  0.00    -0.289 OA
ATOM     12  C   UNL     1      -2.029  -1.115  -1.208  1.00  0.00     0.153 A 
ATOM     13  C   UNL     1      -2.632  -2.755  -2.890  1.00  0.00     0.016 A 
ATOM     14  C   UNL     1      -2.500  -1.795  -3.891  1.00  0.00     0.002 A 
ATOM     15  C   UNL     1      -2.141  -0.490  -3.554  1.00  0.00     0.019 A 
BRANCH   7  16
ATOM     16  C   UNL     1      -1.560  -1.125   2.413  1.00  0.00     0.018 A 
ATOM     17  C   UNL     1      -2.277  -0.013   2.877  1.00  0.00     0.012 A 
ATOM     18  C   UNL     1      -0.525  -1.643   3.206  1.00  0.00     0.012 A 
ATOM     19  C   UNL     1      -1.982   0.555   4.118  1.00  0.00     0.001 A 
ATOM     20  C   UNL     1      -0.232  -1.075   4.449  1.00  0.00     0.001 A 
ATOM     21  C   UNL     1      -0.965   0.019   4.907  1.00  0.00     0.000 A 
ENDBRANCH   7  16
ENDBRANCH   2   4
ENDBRANCH   1   2
BRANCH   1  22
ATOM     22  C   UNL     1      -0.014   2.944  -2.279  1.00  0.00     0.248 C 
BRANCH  22  23
ATOM     23  C   UNL     1       0.845   2.886  -1.000  1.00  0.00     0.126 C 
BRANCH  23  24
ATOM     24  N   UNL     1       1.999   1.972  -1.101  1.00  0.00    -0.300 NA
ATOM     25  C   UNL     1       2.567   1.677   0.216  1.00  0.00     0.084 C 
ATOM     26  C   UNL     1       2.998   2.420  -2.082  1.00  0.00     0.084 C 
ATOM     27  C   UNL     1       3.637   0.591   0.093  1.00  0.00     0.016 C 
ATOM     28  C   UNL     1       4.455   2.250  -1.641  1.00  0.00     0.016 C 
ATOM     29  C   UNL     1       4.704   0.914  -0.955  1.00  0.00     0.003 C 
ENDBRANCH  23  24
ENDBRANCH  22  23
ENDBRANCH   1  22
TORSDOF 6
