REMARK SMILES CC(C)Cc1ccc([C@H](C)C(=O)O)cc1
REMARK SMILES IDX 5 1 6 2 7 3 8 4 14 5 15 6 4 7 2 8 1 9 3 10 9 11 10 12 11 13
REMARK SMILES IDX 12 14 13 15
REMARK H PARENT 13 16
REMARK Flexibility Score: inf
ROOT
ATOM      1  C   UNL     1      -0.903   0.549  -0.975  1.00  0.00    -0.048 A 
ATOM      2  C   UNL     1      -0.374  -0.582  -1.607  1.00  0.00     0.004 A 
ATOM      3  C   UNL     1       0.920  -1.022  -1.315  1.00  0.00     0.005 A 
ATOM      4  C   UNL     1       1.715  -0.341  -0.383  1.00  0.00    -0.034 A 
ATOM      5  C   UNL     1       1.187   0.798   0.240  1.00  0.00     0.005 A 
ATOM      6  C   UNL     1      -0.107   1.237  -0.052  1.00  0.00     0.004 A 
ENDROOT
BRANCH   1   7
ATOM      7  C   UNL     1      -2.302   1.024  -1.290  1.00  0.00     0.038 C 
BRANCH   7   8
ATOM      8  C   UNL     1      -3.434   0.444  -0.416  1.00  0.00    -0.013 C 
ATOM      9  C   UNL     1      -3.582  -1.071  -0.564  1.00  0.00     0.008 C 
ATOM     10  C   UNL     1      -3.304   0.827   1.058  1.00  0.00     0.008 C 
ENDBRANCH   7   8
ENDBRANCH   1   7
BRANCH   4  11
ATOM     11  C   UNL     1       3.120  -0.831  -0.084  1.00  0.00     0.126 C 
ATOM     12  C   UNL     1       3.334  -1.134   1.402  1.00  0.00     0.025 C 
BRANCH  11  13
ATOM     13  C   UNL     1       4.172   0.112  -0.640  1.00  0.00     0.310 C 
ATOM     14  O   UNL     1       4.628   0.084  -1.774  1.00  0.00    -0.252 OA
BRANCH  13  15
ATOM     15  O   UNL     1       4.574   1.072   0.217  1.00  0.00    -0.481 OA
ATOM     16  H   UNL     1       5.201   1.606  -0.314  1.00  0.00     0.296 HD
ENDBRANCH  13  15
ENDBRANCH  11  13
ENDBRANCH   4  11
TORSDOF 5
