REMARK SMILES COCCCOc1ccnc(CS(=O)c2nc3ccccc3[nH]2)c1C
REMARK SMILES IDX 6 1 5 2 4 3 3 4 2 5 1 6 7 7 24 8 8 9 25 10 11 11 9 12 10 13
REMARK SMILES IDX 12 14 13 15 14 16 15 17 16 18 23 19 17 20 22 21 18 23 21 24
REMARK SMILES IDX 19 25 20 26
REMARK H PARENT 23 22
REMARK Flexibility Score: inf
ROOT
ATOM      1  O   UNL     1      -3.230  -1.683  -0.148  1.00  0.00    -0.493 OA
ENDROOT
BRANCH   1   2
ATOM      2  C   UNL     1      -4.603  -1.783   0.236  1.00  0.00     0.232 C 
BRANCH   2   3
ATOM      3  C   UNL     1      -5.451  -1.921  -1.027  1.00  0.00     0.070 C 
BRANCH   3   4
ATOM      4  C   UNL     1      -5.361  -0.689  -1.922  1.00  0.00     0.163 C 
BRANCH   4   5
ATOM      5  O   UNL     1      -5.889   0.437  -1.221  1.00  0.00    -0.385 OA
ATOM      6  C   UNL     1      -5.757   1.631  -1.982  1.00  0.00     0.194 C 
ENDBRANCH   4   5
ENDBRANCH   3   4
ENDBRANCH   2   3
ENDBRANCH   1   2
BRANCH   1   7
ATOM      7  C   UNL     1      -2.327  -1.324   0.819  1.00  0.00     0.125 A 
ATOM      8  C   UNL     1      -1.052  -0.937   0.367  1.00  0.00     0.014 A 
ATOM      9  C   UNL     1      -2.597  -1.346   2.183  1.00  0.00     0.067 A 
ATOM     10  C   UNL     1      -0.738  -0.920  -1.105  1.00  0.00     0.050 C 
ATOM     11  C   UNL     1      -0.081  -0.609   1.328  1.00  0.00     0.060 A 
ATOM     12  C   UNL     1      -1.598  -0.956   3.050  1.00  0.00     0.115 A 
ATOM     13  N   UNL     1      -0.368  -0.575   2.655  1.00  0.00    -0.260 NA
BRANCH  11  14
ATOM     14  C   UNL     1       1.309  -0.174   0.914  1.00  0.00     0.170 C 
BRANCH  14  15
ATOM     15  S   UNL     1       2.577  -0.400   2.201  1.00  0.00     0.095 S 
ATOM     16  O   UNL     1       3.020  -1.838   2.221  1.00  0.00    -0.251 OA
BRANCH  15  17
ATOM     17  C   UNL     1       3.902   0.465   1.337  1.00  0.00     0.197 A 
ATOM     18  N   UNL     1       3.787   1.620   0.719  1.00  0.00    -0.220 NA
ATOM     19  N   UNL     1       5.173  -0.034   1.245  1.00  0.00    -0.331 N 
ATOM     20  C   UNL     1       5.036   1.874   0.207  1.00  0.00     0.090 A 
ATOM     21  C   UNL     1       5.927   0.854   0.527  1.00  0.00     0.066 A 
ATOM     22  H   UNL     1       5.468  -0.921   1.628  1.00  0.00     0.169 HD
ATOM     23  C   UNL     1       5.489   2.962  -0.556  1.00  0.00     0.030 A 
ATOM     24  C   UNL     1       7.266   0.850   0.130  1.00  0.00     0.028 A 
ATOM     25  C   UNL     1       6.831   2.991  -0.957  1.00  0.00     0.002 A 
ATOM     26  C   UNL     1       7.700   1.950  -0.621  1.00  0.00     0.002 A 
ENDBRANCH  15  17
ENDBRANCH  14  15
ENDBRANCH  11  14
ENDBRANCH   1   7
TORSDOF 8
