REMARK SMILES C[C@H](Nc1ncnc2nc[nH]c12)c1cc2cccc(Cl)c2c(=O)n1-c1ccccc1
REMARK SMILES IDX 1 1 2 2 3 3 4 5 5 6 12 7 6 8 8 9 11 10 7 11 9 12 10 13 13 15
REMARK SMILES IDX 14 16 24 17 15 18 22 19 16 20 21 21 23 22 17 23 19 24 18 25
REMARK SMILES IDX 20 26 25 27 26 28 30 29 27 30 29 31 28 32
REMARK H PARENT 3 4 11 14
REMARK Flexibility Score: inf
ROOT
ATOM      1  C   UNL     1       0.677  -1.783   0.928  1.00  0.00     0.038 C 
ATOM      2  C   UNL     1       0.634  -0.596  -0.047  1.00  0.00     0.125 C 
ENDROOT
BRANCH   2   3
ATOM      3  N   UNL     1       1.891   0.166   0.112  1.00  0.00    -0.360 N 
ATOM      4  H   UNL     1       2.140   0.311   1.082  1.00  0.00     0.162 HD
BRANCH   3   5
ATOM      5  C   UNL     1       2.986  -0.257  -0.639  1.00  0.00     0.156 A 
ATOM      6  N   UNL     1       2.855  -1.098  -1.686  1.00  0.00    -0.217 NA
ATOM      7  C   UNL     1       4.276   0.171  -0.366  1.00  0.00     0.128 A 
ATOM      8  C   UNL     1       3.955  -1.479  -2.370  1.00  0.00     0.226 A 
ATOM      9  C   UNL     1       5.347  -0.273  -1.120  1.00  0.00     0.182 A 
ATOM     10  N   UNL     1       4.833   1.028   0.544  1.00  0.00    -0.340 N 
ATOM     11  N   UNL     1       5.225  -1.125  -2.151  1.00  0.00    -0.215 NA
ATOM     12  N   UNL     1       6.524   0.270  -0.676  1.00  0.00    -0.217 NA
ATOM     13  C   UNL     1       6.182   1.052   0.322  1.00  0.00     0.199 A 
ATOM     14  H   UNL     1       4.336   1.566   1.238  1.00  0.00     0.168 HD
ENDBRANCH   3   5
ENDBRANCH   2   3
BRANCH   2  15
ATOM     15  C   UNL     1      -0.593   0.315   0.236  1.00  0.00     0.049 C 
ATOM     16  C   UNL     1      -0.439   1.533   0.788  1.00  0.00     0.033 C 
ATOM     17  N   UNL     1      -1.899  -0.167  -0.018  1.00  0.00    -0.279 N 
ATOM     18  C   UNL     1      -1.572   2.359   1.181  1.00  0.00    -0.009 A 
ATOM     19  C   UNL     1      -3.062   0.543   0.405  1.00  0.00     0.264 C 
ATOM     20  C   UNL     1      -1.327   3.627   1.733  1.00  0.00     0.009 A 
ATOM     21  C   UNL     1      -2.881   1.880   1.045  1.00  0.00     0.066 A 
ATOM     22  O   UNL     1      -4.204   0.122   0.228  1.00  0.00    -0.268 OA
ATOM     23  C   UNL     1      -2.382   4.425   2.159  1.00  0.00     0.002 A 
ATOM     24  C   UNL     1      -3.944   2.691   1.487  1.00  0.00     0.054 A 
ATOM     25  C   UNL     1      -3.685   3.955   2.039  1.00  0.00     0.021 A 
ATOM     26  Cl  UNL     1      -5.618   2.255   1.421  1.00  0.00    -0.083 Cl
BRANCH  17  27
ATOM     27  C   UNL     1      -2.152  -1.356  -0.791  1.00  0.00     0.049 A 
ATOM     28  C   UNL     1      -1.634  -1.491  -2.086  1.00  0.00     0.027 A 
ATOM     29  C   UNL     1      -2.956  -2.383  -0.277  1.00  0.00     0.027 A 
ATOM     30  C   UNL     1      -1.878  -2.646  -2.834  1.00  0.00     0.002 A 
ATOM     31  C   UNL     1      -3.201  -3.537  -1.025  1.00  0.00     0.002 A 
ATOM     32  C   UNL     1      -2.656  -3.671  -2.300  1.00  0.00     0.000 A 
ENDBRANCH  17  27
ENDBRANCH   2  15
TORSDOF 4
