REMARK SMILES C[C@@H](Oc1cc(-c2cnn(C3CCNCC3)c2)cnc1N)c1c(Cl)ccc(F)c1Cl
REMARK SMILES IDX 4 1 5 2 6 3 18 4 19 5 20 6 3 7 2 8 1 9 22 10 23 11 29 12
REMARK SMILES IDX 24 13 25 14 27 15 30 16 26 17 28 18 21 19 7 22 17 23 8 24
REMARK SMILES IDX 10 25 9 26 11 27 12 28 16 29 13 30 15 31 14 32
REMARK H PARENT 21 20 21 21 14 33
REMARK Flexibility Score: inf
ROOT
ATOM      1  C   UNL     1      -2.179   1.053   0.290  1.00  0.00     0.162 A 
ATOM      2  C   UNL     1      -0.931   0.768  -0.260  1.00  0.00     0.061 A 
ATOM      3  C   UNL     1       0.219   1.010   0.489  1.00  0.00     0.007 A 
ATOM      4  C   UNL     1       0.039   1.549   1.760  1.00  0.00     0.122 A 
ATOM      5  N   UNL     1      -1.164   1.861   2.305  1.00  0.00    -0.235 NA
ATOM      6  C   UNL     1      -2.259   1.638   1.560  1.00  0.00     0.166 A 
ENDROOT
BRANCH   1   7
ATOM      7  O   UNL     1      -3.293   0.837  -0.478  1.00  0.00    -0.482 OA
BRANCH   7   8
ATOM      8  C   UNL     1      -3.953  -0.402  -0.158  1.00  0.00     0.203 C 
ATOM      9  C   UNL     1      -3.489  -1.525  -1.091  1.00  0.00     0.058 C 
BRANCH   8  10
ATOM     10  C   UNL     1      -5.463  -0.190  -0.237  1.00  0.00     0.032 A 
ATOM     11  C   UNL     1      -6.091   0.385  -1.367  1.00  0.00     0.049 A 
ATOM     12  C   UNL     1      -6.303  -0.582   0.832  1.00  0.00     0.085 A 
ATOM     13  Cl  UNL     1      -5.223   0.918  -2.768  1.00  0.00    -0.084 Cl
ATOM     14  C   UNL     1      -7.484   0.561  -1.420  1.00  0.00     0.024 A 
ATOM     15  C   UNL     1      -7.691  -0.397   0.763  1.00  0.00     0.142 A 
ATOM     16  Cl  UNL     1      -5.683  -1.306   2.281  1.00  0.00    -0.081 Cl
ATOM     17  C   UNL     1      -8.285   0.172  -0.353  1.00  0.00     0.042 A 
ATOM     18  F   UNL     1      -8.480  -0.768   1.783  1.00  0.00    -0.205 F 
ENDBRANCH   8  10
ENDBRANCH   7   8
ENDBRANCH   1   7
BRANCH   6  19
ATOM     19  N   UNL     1      -3.496   1.992   2.119  1.00  0.00    -0.381 N 
ATOM     20  H   UNL     1      -3.998   2.563   1.444  1.00  0.00     0.158 HD
ATOM     21  H   UNL     1      -4.045   1.158   2.292  1.00  0.00     0.158 HD
ENDBRANCH   6  19
BRANCH   3  22
ATOM     22  C   UNL     1       1.533   0.719  -0.048  1.00  0.00     0.021 A 
ATOM     23  C   UNL     1       2.633   0.342   0.695  1.00  0.00     0.117 A 
ATOM     24  C   UNL     1       2.004   0.710  -1.380  1.00  0.00     0.143 A 
ATOM     25  N   UNL     1       3.654   0.143  -0.194  1.00  0.00    -0.269 N 
ATOM     26  N   UNL     1       3.290   0.361  -1.473  1.00  0.00    -0.181 NA
BRANCH  25  27
ATOM     27  C   UNL     1       5.009  -0.291   0.123  1.00  0.00     0.110 C 
ATOM     28  C   UNL     1       6.072   0.638  -0.468  1.00  0.00     0.042 C 
ATOM     29  C   UNL     1       5.246  -1.752  -0.294  1.00  0.00     0.042 C 
ATOM     30  C   UNL     1       7.471   0.192  -0.040  1.00  0.00     0.083 C 
ATOM     31  C   UNL     1       6.692  -2.008  -0.712  1.00  0.00     0.083 C 
ATOM     32  N   UNL     1       7.609  -1.257   0.137  1.00  0.00    -0.317 NA
ATOM     33  H   UNL     1       8.573  -1.531  -0.055  1.00  0.00     0.122 HD
ENDBRANCH  25  27
ENDBRANCH   3  22
TORSDOF 6
