REMARK SMILES Cc1cc(C2CCCCC2)n(O)c(=O)c1
REMARK SMILES IDX 1 1 2 2 3 3 4 4 11 5 13 6 14 7 15 8 5 9 6 10 10 11 7 12 9 13
REMARK SMILES IDX 8 14 12 15
REMARK H PARENT 12 16
REMARK Flexibility Score: inf
ROOT
ATOM      1  C   UNL     1       4.173   1.092  -0.981  1.00  0.00     0.044 C 
ATOM      2  C   UNL     1       3.132   0.468  -0.102  1.00  0.00    -0.044 C 
ATOM      3  C   UNL     1       1.749   0.562  -0.540  1.00  0.00     0.029 C 
ATOM      4  C   UNL     1       0.744   0.030   0.184  1.00  0.00     0.064 C 
ATOM      5  N   UNL     1       1.078  -0.611   1.360  1.00  0.00    -0.152 N 
ATOM      6  C   UNL     1       2.352  -0.755   1.870  1.00  0.00     0.283 C 
ATOM      7  O   UNL     1       2.601  -1.329   2.928  1.00  0.00    -0.266 OA
ATOM      8  C   UNL     1       3.434  -0.159   1.047  1.00  0.00     0.078 C 
ENDROOT
BRANCH   4   9
ATOM      9  C   UNL     1      -0.700   0.128  -0.283  1.00  0.00     0.040 C 
ATOM     10  C   UNL     1      -1.582   0.992   0.644  1.00  0.00     0.010 C 
ATOM     11  C   UNL     1      -1.342  -1.234  -0.591  1.00  0.00     0.010 C 
ATOM     12  C   UNL     1      -3.065   0.618   0.590  1.00  0.00     0.001 C 
ATOM     13  C   UNL     1      -2.712  -1.077  -1.259  1.00  0.00     0.001 C 
ATOM     14  C   UNL     1      -3.482   0.163  -0.802  1.00  0.00     0.000 C 
ENDBRANCH   4   9
BRANCH   5  15
ATOM     15  O   UNL     1       0.034  -1.162   2.133  1.00  0.00    -0.425 OA
ATOM     16  H   UNL     1       0.530  -1.533   2.892  1.00  0.00     0.328 HD
ENDBRANCH   5  15
TORSDOF 2
