REMARK SMILES Fc1ccc(-c2ccc3c(c2)[nH]c2ccncc23)cn1
REMARK SMILES IDX 6 1 7 2 8 3 9 4 10 5 11 6 12 7 13 8 14 9 15 10 16 11 17 12
REMARK SMILES IDX 18 13 5 15 1 16 2 17 3 18 20 19 4 20 19 21
REMARK H PARENT 12 14
REMARK Flexibility Score: inf
ROOT
ATOM      1  C   UNL     1      -1.336   0.076   0.025  1.00  0.00    -0.015 A 
ATOM      2  C   UNL     1      -0.987   0.641  -1.211  1.00  0.00     0.009 A 
ATOM      3  C   UNL     1       0.351   0.794  -1.601  1.00  0.00     0.011 A 
ATOM      4  C   UNL     1       1.378   0.369  -0.736  1.00  0.00     0.009 A 
ATOM      5  C   UNL     1       1.022  -0.191   0.489  1.00  0.00     0.047 A 
ATOM      6  C   UNL     1      -0.312  -0.349   0.893  1.00  0.00     0.035 A 
ATOM      7  N   UNL     1       2.189  -0.522   1.138  1.00  0.00    -0.354 N 
ATOM      8  C   UNL     1       3.284  -0.191   0.376  1.00  0.00     0.050 A 
ATOM      9  C   UNL     1       4.646  -0.341   0.630  1.00  0.00     0.047 A 
ATOM     10  C   UNL     1       5.483   0.111  -0.379  1.00  0.00     0.113 A 
ATOM     11  N   UNL     1       5.069   0.662  -1.541  1.00  0.00    -0.264 NA
ATOM     12  C   UNL     1       3.738   0.796  -1.764  1.00  0.00     0.121 A 
ATOM     13  C   UNL     1       2.807   0.372  -0.808  1.00  0.00     0.026 A 
ATOM     14  H   UNL     1       2.235  -0.950   2.051  1.00  0.00     0.167 HD
ENDROOT
BRANCH   1  15
ATOM     15  C   UNL     1      -2.748  -0.073   0.410  1.00  0.00     0.000 A 
ATOM     16  F   UNL     1      -6.648  -0.439   1.601  1.00  0.00    -0.185 F 
ATOM     17  C   UNL     1      -5.371  -0.317   1.210  1.00  0.00     0.212 A 
ATOM     18  C   UNL     1      -5.002  -0.853  -0.011  1.00  0.00     0.061 A 
ATOM     19  N   UNL     1      -4.523   0.322   2.038  1.00  0.00    -0.228 NA
ATOM     20  C   UNL     1      -3.673  -0.728  -0.413  1.00  0.00     0.015 A 
ATOM     21  C   UNL     1      -3.240   0.430   1.617  1.00  0.00     0.123 A 
ENDBRANCH   1  15
TORSDOF 1
