REMARK SMILES CC[C@@H](CO)NC(=O)[C@@H]1C=C2c3cccc4[nH]cc(c34)C[C@H]2N(C)C1
REMARK SMILES IDX 3 1 2 2 1 3 4 4 5 5 6 7 7 8 8 10 9 11 10 12 25 13 11 14
REMARK SMILES IDX 23 15 12 16 22 17 24 18 13 19 20 20 21 21 14 22 16 23 19 24
REMARK SMILES IDX 15 25 17 26 18 27
REMARK H PARENT 5 6 6 9 17 28
REMARK Flexibility Score: inf
ROOT
ATOM      1  C   UNL     1       4.534   0.373   0.326  1.00  0.00     0.107 C 
ENDROOT
BRANCH   1   2
ATOM      2  C   UNL     1       5.599  -0.671  -0.044  1.00  0.00     0.024 C 
ATOM      3  C   UNL     1       5.316  -2.040   0.563  1.00  0.00     0.006 C 
ENDBRANCH   1   2
BRANCH   1   4
ATOM      4  C   UNL     1       4.957   1.772  -0.180  1.00  0.00     0.180 C 
BRANCH   4   5
ATOM      5  O   UNL     1       4.265   2.826   0.486  1.00  0.00    -0.394 OA
ATOM      6  H   UNL     1       3.396   2.481   0.786  1.00  0.00     0.210 HD
ENDBRANCH   4   5
ENDBRANCH   1   4
BRANCH   1   7
ATOM      7  N   UNL     1       3.232  -0.021  -0.226  1.00  0.00    -0.351 N 
ATOM      8  C   UNL     1       2.045   0.539   0.201  1.00  0.00     0.228 C 
ATOM      9  H   UNL     1       3.226  -0.526  -1.104  1.00  0.00     0.163 HD
ATOM     10  O   UNL     1       2.017   1.395   1.082  1.00  0.00    -0.274 OA
BRANCH   8  11
ATOM     11  C   UNL     1       0.804  -0.004  -0.518  1.00  0.00     0.115 C 
ATOM     12  C   UNL     1      -0.366   0.930  -0.384  1.00  0.00    -0.007 C 
ATOM     13  C   UNL     1       0.484  -1.398   0.045  1.00  0.00     0.102 C 
ATOM     14  C   UNL     1      -1.609   0.468  -0.154  1.00  0.00    -0.026 C 
ATOM     15  N   UNL     1      -0.782  -1.924  -0.501  1.00  0.00    -0.298 NA
ATOM     16  C   UNL     1      -2.746   1.400   0.031  1.00  0.00    -0.011 A 
ATOM     17  C   UNL     1      -1.934  -1.059  -0.089  1.00  0.00     0.091 C 
ATOM     18  C   UNL     1      -0.966  -3.310  -0.059  1.00  0.00     0.106 C 
ATOM     19  C   UNL     1      -2.721   2.732   0.460  1.00  0.00     0.009 A 
ATOM     20  C   UNL     1      -3.998   0.840  -0.254  1.00  0.00     0.010 A 
ATOM     21  C   UNL     1      -3.219  -1.445  -0.920  1.00  0.00     0.061 C 
ATOM     22  C   UNL     1      -3.912   3.463   0.585  1.00  0.00     0.003 A 
ATOM     23  C   UNL     1      -5.170   1.566  -0.128  1.00  0.00     0.046 A 
ATOM     24  C   UNL     1      -4.316  -0.463  -0.693  1.00  0.00    -0.020 A 
ATOM     25  C   UNL     1      -5.163   2.897   0.293  1.00  0.00     0.027 A 
ATOM     26  N   UNL     1      -6.190   0.711  -0.487  1.00  0.00    -0.361 N 
ATOM     27  C   UNL     1      -5.684  -0.524  -0.832  1.00  0.00     0.087 A 
ATOM     28  H   UNL     1      -7.170   0.961  -0.497  1.00  0.00     0.166 HD
ENDBRANCH   8  11
ENDBRANCH   1   7
TORSDOF 5
