REMARK SMILES CC#CC(=O)N1CC[C@@H](n2cc(-c3ccc(Oc4c(F)cccc4F)cc3)c3c(N)n[nH]c(=O)c32)C1
REMARK SMILES IDX 10 1 11 2 12 3 28 4 35 5 33 6 34 7 32 8 31 9 29 10 30 11
REMARK SMILES IDX 9 15 6 16 7 17 36 18 8 19 4 20 5 21 3 22 1 23 2 24 13 25
REMARK SMILES IDX 14 26 27 27 15 28 26 29 16 30 17 31 18 32 19 33 24 34 20 35
REMARK SMILES IDX 21 36 23 37 25 38 22 39
REMARK H PARENT 32 12 30 13 30 14
REMARK Flexibility Score: inf
ROOT
ATOM      1  N   UNL     1       2.085  -1.428  -0.179  1.00  0.00    -0.337 N 
ATOM      2  C   UNL     1       1.117  -0.561   0.266  1.00  0.00     0.096 A 
ATOM      3  C   UNL     1      -0.126  -1.129   0.049  1.00  0.00     0.011 A 
ATOM      4  C   UNL     1       0.095  -2.403  -0.542  1.00  0.00     0.057 A 
ATOM      5  C   UNL     1       1.467  -2.562  -0.657  1.00  0.00     0.120 A 
ATOM      6  C   UNL     1       2.051  -3.766  -1.192  1.00  0.00     0.288 C 
ATOM      7  O   UNL     1       3.255  -3.977  -1.305  1.00  0.00    -0.266 OA
ATOM      8  N   UNL     1       1.112  -4.707  -1.582  1.00  0.00    -0.240 N 
ATOM      9  N   UNL     1      -0.262  -4.577  -1.498  1.00  0.00    -0.154 NA
ATOM     10  C   UNL     1      -0.762  -3.481  -1.002  1.00  0.00     0.154 C 
ATOM     11  N   UNL     1      -2.100  -3.272  -0.900  1.00  0.00    -0.382 N 
ATOM     12  H   UNL     1       1.458  -5.580  -1.961  1.00  0.00     0.194 HD
ATOM     13  H   UNL     1      -2.642  -3.918  -1.461  1.00  0.00     0.158 HD
ATOM     14  H   UNL     1      -2.419  -2.314  -0.980  1.00  0.00     0.158 HD
ENDROOT
BRANCH   1  15
ATOM     15  C   UNL     1       3.520  -1.224  -0.127  1.00  0.00     0.108 C 
ATOM     16  N   UNL     1       5.346   0.112   0.552  1.00  0.00    -0.330 N 
ATOM     17  C   UNL     1       5.559  -1.208   1.112  1.00  0.00     0.123 C 
ATOM     18  C   UNL     1       4.034   0.223  -0.073  1.00  0.00     0.146 C 
ATOM     19  C   UNL     1       4.180  -1.851   1.107  1.00  0.00     0.049 C 
BRANCH  16  20
ATOM     20  C   UNL     1       6.292   1.105   0.651  1.00  0.00     0.298 C 
ATOM     21  O   UNL     1       7.384   0.953   1.186  1.00  0.00    -0.259 OA
BRANCH  20  22
ATOM     22  C   UNL     1       5.963   2.402   0.096  1.00  0.00    -0.005 C 
ATOM     23  C   UNL     1       5.379   4.802  -0.905  1.00  0.00     0.108 C 
ATOM     24  C   UNL     1       5.693   3.482  -0.359  1.00  0.00    -0.096 C 
ENDBRANCH  20  22
ENDBRANCH  16  20
ENDBRANCH   1  15
BRANCH   3  25
ATOM     25  C   UNL     1      -1.348  -0.455   0.437  1.00  0.00    -0.016 A 
ATOM     26  C   UNL     1      -2.146  -0.981   1.459  1.00  0.00     0.012 A 
ATOM     27  C   UNL     1      -1.743   0.719  -0.217  1.00  0.00     0.012 A 
ATOM     28  C   UNL     1      -3.340  -0.349   1.812  1.00  0.00     0.048 A 
ATOM     29  C   UNL     1      -2.938   1.351   0.135  1.00  0.00     0.048 A 
ATOM     30  C   UNL     1      -3.744   0.800   1.134  1.00  0.00     0.127 A 
BRANCH  30  31
ATOM     31  O   UNL     1      -4.921   1.387   1.538  1.00  0.00    -0.451 OA
BRANCH  31  32
ATOM     32  C   UNL     1      -5.822   1.702   0.549  1.00  0.00     0.198 A 
ATOM     33  C   UNL     1      -6.326   3.000   0.510  1.00  0.00     0.168 A 
ATOM     34  C   UNL     1      -6.305   0.766  -0.365  1.00  0.00     0.168 A 
ATOM     35  F   UNL     1      -5.901   3.916   1.391  1.00  0.00    -0.203 F 
ATOM     36  C   UNL     1      -7.269   3.375  -0.446  1.00  0.00     0.043 A 
ATOM     37  C   UNL     1      -7.248   1.127  -1.327  1.00  0.00     0.043 A 
ATOM     38  F   UNL     1      -5.885  -0.507  -0.331  1.00  0.00    -0.203 F 
ATOM     39  C   UNL     1      -7.730   2.437  -1.371  1.00  0.00     0.006 A 
ENDBRANCH  31  32
ENDBRANCH  30  31
ENDBRANCH   3  25
TORSDOF 6
