REMARK SMILES NC1=N[C@@](c2cccc(-c3cncnc3)c2)(c2ccnc(C(F)F)c2)c2cccc(F)c21
REMARK SMILES IDX 1 1 2 2 3 3 4 4 26 5 27 6 28 7 29 8 30 9 31 10 32 11 5 14
REMARK SMILES IDX 6 15 16 16 7 17 9 18 8 19 10 20 11 21 15 22 12 23 14 24
REMARK SMILES IDX 13 25 17 26 18 27 25 28 19 29 21 30 20 31 22 32 23 33 24 34
REMARK H PARENT 1 12 1 13
REMARK Flexibility Score: inf
ROOT
ATOM      1  N   UNL     1      -1.663   4.615  -0.128  1.00  0.00    -0.383 N 
ATOM      2  C   UNL     1      -1.221   3.337  -0.260  1.00  0.00     0.130 C 
ATOM      3  N   UNL     1      -1.091   2.537   0.757  1.00  0.00    -0.247 NA
ATOM      4  C   UNL     1      -0.620   1.195   0.213  1.00  0.00     0.139 C 
ATOM      5  C   UNL     1      -0.446   1.460  -1.274  1.00  0.00     0.002 A 
ATOM      6  C   UNL     1       0.029   0.663  -2.310  1.00  0.00     0.008 A 
ATOM      7  C   UNL     1       0.082   1.201  -3.603  1.00  0.00     0.003 A 
ATOM      8  C   UNL     1      -0.324   2.524  -3.847  1.00  0.00     0.040 A 
ATOM      9  C   UNL     1      -0.781   3.314  -2.798  1.00  0.00     0.134 A 
ATOM     10  F   UNL     1      -1.138   4.586  -3.019  1.00  0.00    -0.206 F 
ATOM     11  C   UNL     1      -0.834   2.763  -1.536  1.00  0.00     0.058 A 
ATOM     12  H   UNL     1      -1.418   5.288  -0.847  1.00  0.00     0.158 HD
ATOM     13  H   UNL     1      -1.650   4.974   0.820  1.00  0.00     0.158 HD
ENDROOT
BRANCH   4  14
ATOM     14  C   UNL     1       0.744   0.798   0.834  1.00  0.00    -0.011 A 
ATOM     15  C   UNL     1       1.561   1.750   1.467  1.00  0.00     0.007 A 
ATOM     16  C   UNL     1       1.219  -0.530   0.755  1.00  0.00     0.015 A 
ATOM     17  C   UNL     1       2.793   1.389   2.010  1.00  0.00     0.001 A 
ATOM     18  C   UNL     1       2.460  -0.914   1.299  1.00  0.00    -0.015 A 
ATOM     19  C   UNL     1       3.237   0.069   1.928  1.00  0.00     0.009 A 
BRANCH  18  20
ATOM     20  C   UNL     1       2.924  -2.302   1.212  1.00  0.00     0.018 A 
ATOM     21  C   UNL     1       2.980  -3.010   0.023  1.00  0.00     0.123 A 
ATOM     22  C   UNL     1       3.346  -3.029   2.313  1.00  0.00     0.123 A 
ATOM     23  N   UNL     1       3.399  -4.289  -0.091  1.00  0.00    -0.244 NA
ATOM     24  N   UNL     1       3.780  -4.308   2.267  1.00  0.00    -0.244 NA
ATOM     25  C   UNL     1       3.782  -4.876   1.052  1.00  0.00     0.221 A 
ENDBRANCH  18  20
ENDBRANCH   4  14
BRANCH   4  26
ATOM     26  C   UNL     1      -1.729   0.181   0.576  1.00  0.00    -0.008 A 
ATOM     27  C   UNL     1      -2.025  -0.042   1.932  1.00  0.00     0.027 A 
ATOM     28  C   UNL     1      -2.490  -0.523  -0.367  1.00  0.00     0.036 A 
ATOM     29  C   UNL     1      -3.013  -0.949   2.275  1.00  0.00     0.112 A 
ATOM     30  C   UNL     1      -3.475  -1.419   0.060  1.00  0.00     0.107 A 
ATOM     31  N   UNL     1      -3.735  -1.648   1.375  1.00  0.00    -0.255 NA
BRANCH  30  32
ATOM     32  C   UNL     1      -4.276  -2.181  -0.973  1.00  0.00     0.391 C 
ATOM     33  F   UNL     1      -3.507  -3.052  -1.693  1.00  0.00    -0.203 F 
ATOM     34  F   UNL     1      -4.857  -1.362  -1.900  1.00  0.00    -0.203 F 
ENDBRANCH  30  32
ENDBRANCH   4  26
TORSDOF 4
