REMARK SMILES Cn1cc(-c2[nH]c3cc(NC(=O)[C@H](N)C4CCCCC4)cc4c3c2C=NNC4=O)cn1
REMARK SMILES IDX 10 1 11 2 12 3 9 5 5 6 24 7 6 8 25 9 23 10 7 11 26 13 22 14
REMARK SMILES IDX 8 15 27 16 28 17 21 18 29 20 4 21 1 22 2 23 3 24 31 25 30 26
REMARK SMILES IDX 13 27 14 28 15 31 16 32 20 33 17 34 19 35 18 36
REMARK H PARENT 10 4 6 12 27 19 14 29 14 30
REMARK Flexibility Score: inf
ROOT
ATOM      1  N   UNL     1      -1.754   0.674   1.357  1.00  0.00    -0.325 N 
ATOM      2  C   UNL     1      -2.849   1.496   1.155  1.00  0.00     0.241 C 
ATOM      3  O   UNL     1      -2.857   2.537   0.504  1.00  0.00    -0.273 OA
ATOM      4  H   UNL     1      -1.922  -0.136   1.936  1.00  0.00     0.169 HD
ENDROOT
BRANCH   1   5
ATOM      5  C   UNL     1      -0.441   0.832   0.869  1.00  0.00     0.044 A 
ATOM      6  C   UNL     1       3.989  -0.366   0.333  1.00  0.00     0.059 A 
ATOM      7  C   UNL     1       3.620   0.827  -0.279  1.00  0.00     0.029 A 
ATOM      8  N   UNL     1       2.885  -0.840   0.997  1.00  0.00    -0.354 N 
ATOM      9  C   UNL     1       4.471   1.726  -1.001  1.00  0.00     0.144 C 
ATOM     10  C   UNL     1       2.234   1.017  -0.031  1.00  0.00     0.022 A 
ATOM     11  C   UNL     1       1.802  -0.029   0.781  1.00  0.00     0.049 A 
ATOM     12  H   UNL     1       2.860  -1.691   1.540  1.00  0.00     0.167 HD
ATOM     13  N   UNL     1       4.145   2.797  -1.649  1.00  0.00    -0.180 NA
ATOM     14  C   UNL     1       1.304   1.990  -0.413  1.00  0.00     0.053 A 
ATOM     15  C   UNL     1       0.485  -0.149   1.243  1.00  0.00     0.052 A 
ATOM     16  N   UNL     1       2.916   3.337  -1.802  1.00  0.00    -0.243 N 
ATOM     17  C   UNL     1       1.657   3.106  -1.305  1.00  0.00     0.272 C 
ATOM     18  C   UNL     1      -0.031   1.882   0.049  1.00  0.00     0.040 A 
ATOM     19  H   UNL     1       2.925   4.171  -2.384  1.00  0.00     0.194 HD
ATOM     20  O   UNL     1       0.767   3.892  -1.645  1.00  0.00    -0.267 OA
BRANCH   6  21
ATOM     21  C   UNL     1       5.340  -1.145   0.354  1.00  0.00     0.037 A 
ATOM     22  C   UNL     1       8.745  -2.023  -0.433  1.00  0.00     0.173 C 
ATOM     23  N   UNL     1       7.385  -1.868   0.026  1.00  0.00    -0.275 N 
ATOM     24  C   UNL     1       6.504  -0.881  -0.326  1.00  0.00     0.118 A 
ATOM     25  N   UNL     1       6.870  -2.763   0.885  1.00  0.00    -0.181 NA
ATOM     26  C   UNL     1       5.624  -2.325   1.079  1.00  0.00     0.145 A 
ENDBRANCH   6  21
ENDBRANCH   1   5
BRANCH   2  27
ATOM     27  C   UNL     1      -4.156   0.972   1.812  1.00  0.00     0.144 C 
BRANCH  27  28
ATOM     28  N   UNL     1      -3.888   0.360   3.134  1.00  0.00    -0.320 NA
ATOM     29  H   UNL     1      -3.256   0.955   3.670  1.00  0.00     0.119 HD
ATOM     30  H   UNL     1      -3.506  -0.576   3.071  1.00  0.00     0.119 HD
ENDBRANCH  27  28
BRANCH  27  31
ATOM     31  C   UNL     1      -4.969   0.020   0.901  1.00  0.00     0.015 C 
ATOM     32  C   UNL     1      -4.237  -1.275   0.501  1.00  0.00     0.006 C 
ATOM     33  C   UNL     1      -5.472   0.750  -0.360  1.00  0.00     0.006 C 
ATOM     34  C   UNL     1      -5.120  -2.176  -0.364  1.00  0.00     0.000 C 
ATOM     35  C   UNL     1      -6.353  -0.152  -1.223  1.00  0.00     0.000 C 
ATOM     36  C   UNL     1      -5.636  -1.444  -1.598  1.00  0.00     0.000 C 
ENDBRANCH  27  31
ENDBRANCH   2  27
TORSDOF 5
