REMARK SMILES O=C(O)CCn1c2c(c3ccccc31)C[C@H](NS(=O)(=O)c1ccc(F)cc1)CC2
REMARK SMILES IDX 6 1 7 2 8 3 9 4 10 5 11 6 12 7 13 8 14 9 15 10 16 11 28 12
REMARK SMILES IDX 29 13 5 14 4 15 2 16 1 17 3 18 17 20 18 22 19 23 20 24 21 25
REMARK SMILES IDX 22 26 27 27 23 28 26 29 24 30 25 31
REMARK H PARENT 3 19 17 21
REMARK Flexibility Score: inf
ROOT
ATOM      1  N   UNL     1      -2.473   0.691   0.810  1.00  0.00    -0.344 N 
ATOM      2  C   UNL     1      -1.425   0.866  -0.059  1.00  0.00     0.022 A 
ATOM      3  C   UNL     1      -0.264   0.963   0.684  1.00  0.00    -0.018 A 
ATOM      4  C   UNL     1      -0.616   0.858   2.056  1.00  0.00     0.003 A 
ATOM      5  C   UNL     1       0.119   0.890   3.258  1.00  0.00     0.010 A 
ATOM      6  C   UNL     1      -0.547   0.749   4.480  1.00  0.00     0.001 A 
ATOM      7  C   UNL     1      -1.926   0.575   4.516  1.00  0.00     0.002 A 
ATOM      8  C   UNL     1      -2.678   0.539   3.338  1.00  0.00     0.027 A 
ATOM      9  C   UNL     1      -2.004   0.686   2.114  1.00  0.00     0.049 A 
ATOM     10  C   UNL     1       1.077   1.158   0.060  1.00  0.00     0.058 C 
ATOM     11  C   UNL     1       1.042   0.797  -1.444  1.00  0.00     0.074 C 
ATOM     12  C   UNL     1      -0.184   1.420  -2.142  1.00  0.00     0.027 C 
ATOM     13  C   UNL     1      -1.505   0.898  -1.550  1.00  0.00     0.056 C 
ENDROOT
BRANCH   1  14
ATOM     14  C   UNL     1      -3.867   0.515   0.435  1.00  0.00     0.134 C 
BRANCH  14  15
ATOM     15  C   UNL     1      -4.227  -0.950   0.283  1.00  0.00     0.144 C 
BRANCH  15  16
ATOM     16  C   UNL     1      -5.655  -1.062  -0.142  1.00  0.00     0.305 C 
ATOM     17  O   UNL     1      -6.056  -1.218  -1.283  1.00  0.00    -0.252 OA
BRANCH  16  18
ATOM     18  O   UNL     1      -6.517  -0.935   0.884  1.00  0.00    -0.481 OA
ATOM     19  H   UNL     1      -7.403  -1.035   0.473  1.00  0.00     0.296 HD
ENDBRANCH  16  18
ENDBRANCH  15  16
ENDBRANCH  14  15
ENDBRANCH   1  14
BRANCH  11  20
ATOM     20  N   UNL     1       2.272   1.292  -2.084  1.00  0.00    -0.208 NA
ATOM     21  H   UNL     1       2.436   2.295  -2.155  1.00  0.00     0.141 HD
BRANCH  20  22
ATOM     22  S   UNL     1       3.049   0.371  -3.243  1.00  0.00     0.240 S 
ATOM     23  O   UNL     1       2.051  -0.338  -4.012  1.00  0.00    -0.207 OA
ATOM     24  O   UNL     1       4.019   1.241  -3.869  1.00  0.00    -0.207 OA
BRANCH  22  25
ATOM     25  C   UNL     1       3.939  -0.796  -2.243  1.00  0.00     0.082 A 
ATOM     26  C   UNL     1       5.144  -0.407  -1.644  1.00  0.00     0.025 A 
ATOM     27  C   UNL     1       3.450  -2.099  -2.092  1.00  0.00     0.025 A 
ATOM     28  C   UNL     1       5.853  -1.328  -0.873  1.00  0.00     0.040 A 
ATOM     29  C   UNL     1       4.166  -3.013  -1.318  1.00  0.00     0.040 A 
ATOM     30  C   UNL     1       5.357  -2.619  -0.715  1.00  0.00     0.123 A 
ATOM     31  F   UNL     1       6.041  -3.499   0.028  1.00  0.00    -0.207 F 
ENDBRANCH  22  25
ENDBRANCH  20  22
ENDBRANCH  11  20
TORSDOF 7
