REMARK SMILES CN1C(CSCC(F)(F)F)Nc2cc(Cl)c(S(N)(=O)=O)cc2S1(=O)=O
REMARK SMILES IDX 4 1 3 2 1 3 2 4 23 5 11 6 22 7 24 8 25 9 12 10 21 12 13 13
REMARK SMILES IDX 16 14 14 15 15 16 17 17 19 18 20 19 18 20 5 23 6 24 7 25
REMARK SMILES IDX 8 26 9 27 10 28
REMARK H PARENT 11 11 18 21 18 22
REMARK Flexibility Score: inf
ROOT
ATOM      1  C   UNL     1       2.145  -0.053  -0.906  1.00  0.00     0.112 C 
ENDROOT
BRANCH   1   2
ATOM      2  C   UNL     1       1.252  -1.321  -0.918  1.00  0.00     0.175 C 
ATOM      3  C   UNL     1       1.785  -2.680   1.105  1.00  0.00     0.127 C 
ATOM      4  N   UNL     1       0.827  -1.847   0.373  1.00  0.00    -0.179 NA
ATOM      5  S   UNL     1      -0.171  -0.868   1.283  1.00  0.00     0.246 S 
ATOM      6  N   UNL     1       0.067  -1.095  -1.742  1.00  0.00    -0.367 N 
ATOM      7  C   UNL     1      -1.358  -0.333   0.104  1.00  0.00     0.107 A 
ATOM      8  O   UNL     1       0.577   0.301   1.694  1.00  0.00    -0.207 OA
ATOM      9  O   UNL     1      -0.848  -1.699   2.254  1.00  0.00    -0.207 OA
ATOM     10  C   UNL     1      -1.076  -0.480  -1.252  1.00  0.00     0.057 A 
ATOM     11  H   UNL     1       0.274  -0.927  -2.722  1.00  0.00     0.162 HD
ATOM     12  C   UNL     1      -2.567   0.206   0.565  1.00  0.00     0.047 A 
ATOM     13  C   UNL     1      -2.079  -0.095  -2.154  1.00  0.00     0.049 A 
ATOM     14  C   UNL     1      -3.538   0.611  -0.358  1.00  0.00     0.102 A 
ATOM     15  C   UNL     1      -3.297   0.458  -1.722  1.00  0.00     0.063 A 
ATOM     16  Cl  UNL     1      -4.407   0.936  -2.954  1.00  0.00    -0.083 Cl
BRANCH  14  17
ATOM     17  S   UNL     1      -5.063   1.262   0.262  1.00  0.00     0.239 S 
ATOM     18  O   UNL     1      -4.896   1.507   1.677  1.00  0.00    -0.207 OA
ATOM     19  O   UNL     1      -6.139   0.454  -0.254  1.00  0.00    -0.207 OA
BRANCH  17  20
ATOM     20  N   UNL     1      -5.158   2.795  -0.415  1.00  0.00    -0.225 NA
ATOM     21  H   UNL     1      -4.576   2.946  -1.236  1.00  0.00     0.137 HD
ATOM     22  H   UNL     1      -5.053   3.506   0.309  1.00  0.00     0.137 HD
ENDBRANCH  17  20
ENDBRANCH  14  17
ENDBRANCH   1   2
BRANCH   1  23
ATOM     23  S   UNL     1       3.854  -0.310  -0.300  1.00  0.00    -0.149 SA
BRANCH  23  24
ATOM     24  C   UNL     1       3.802   0.723   1.222  1.00  0.00     0.185 C 
BRANCH  24  25
ATOM     25  C   UNL     1       5.159   0.893   1.892  1.00  0.00     0.397 C 
ATOM     26  F   UNL     1       5.680  -0.291   2.282  1.00  0.00    -0.170 F 
ATOM     27  F   UNL     1       6.051   1.498   1.076  1.00  0.00    -0.170 F 
ATOM     28  F   UNL     1       5.042   1.664   2.999  1.00  0.00    -0.170 F 
ENDBRANCH  24  25
ENDBRANCH  23  24
ENDBRANCH   1  23
TORSDOF 6
