REMARK SMILES C[C@@H](Cc1ccccc1)N(C)Cc1ccccc1
REMARK SMILES IDX 1 1 2 2 3 3 4 4 5 5 9 6 6 7 8 8 7 9 10 10 11 11 12 12 13 13
REMARK SMILES IDX 14 14 18 15 15 16 17 17 16 18
REMARK H PARENT
REMARK Flexibility Score: inf
ROOT
ATOM      1  C   UNL     1       0.206   0.823   1.123  1.00  0.00     0.025 C 
ATOM      2  C   UNL     1       0.203  -0.702   0.933  1.00  0.00     0.058 C 
ENDROOT
BRANCH   2   3
ATOM      3  C   UNL     1      -1.072  -1.178   0.186  1.00  0.00     0.054 C 
BRANCH   3   4
ATOM      4  C   UNL     1      -2.356  -0.959   0.954  1.00  0.00    -0.046 A 
ATOM      5  C   UNL     1      -2.693  -1.795   2.028  1.00  0.00     0.004 A 
ATOM      6  C   UNL     1      -3.224   0.087   0.610  1.00  0.00     0.004 A 
ATOM      7  C   UNL     1      -3.873  -1.590   2.743  1.00  0.00     0.000 A 
ATOM      8  C   UNL     1      -4.404   0.291   1.327  1.00  0.00     0.000 A 
ATOM      9  C   UNL     1      -4.728  -0.547   2.393  1.00  0.00     0.000 A 
ENDBRANCH   3   4
ENDBRANCH   2   3
BRANCH   2  10
ATOM     10  N   UNL     1       1.436  -1.264   0.341  1.00  0.00    -0.299 NA
ATOM     11  C   UNL     1       2.621  -1.085   1.168  1.00  0.00     0.106 C 
BRANCH  10  12
ATOM     12  C   UNL     1       1.674  -1.114  -1.098  1.00  0.00     0.120 C 
BRANCH  12  13
ATOM     13  C   UNL     1       1.973   0.269  -1.635  1.00  0.00    -0.034 A 
ATOM     14  C   UNL     1       1.001   0.976  -2.361  1.00  0.00     0.005 A 
ATOM     15  C   UNL     1       3.236   0.855  -1.467  1.00  0.00     0.005 A 
ATOM     16  C   UNL     1       1.276   2.244  -2.878  1.00  0.00     0.000 A 
ATOM     17  C   UNL     1       3.511   2.124  -1.984  1.00  0.00     0.000 A 
ATOM     18  C   UNL     1       2.529   2.819  -2.686  1.00  0.00     0.000 A 
ENDBRANCH  12  13
ENDBRANCH  10  12
ENDBRANCH   2  10
TORSDOF 5
