REMARK SMILES CCC(=O)NS(=O)(=O)c1ccc(-c2c(-c3ccccc3)noc2C)cc1
REMARK SMILES IDX 9 1 10 2 11 3 12 4 25 5 26 6 6 7 7 8 8 9 5 10 3 11 4 12 2 14
REMARK SMILES IDX 1 15 13 16 14 17 23 18 21 19 22 20 24 21 15 22 16 23 20 24
REMARK SMILES IDX 17 25 19 26 18 27
REMARK H PARENT 5 13
REMARK Flexibility Score: inf
ROOT
ATOM      1  C   UNL     1       1.298   1.483   1.331  1.00  0.00     0.087 A 
ATOM      2  C   UNL     1       0.118   1.966   0.759  1.00  0.00     0.023 A 
ATOM      3  C   UNL     1      -1.055   1.216   0.865  1.00  0.00     0.010 A 
ATOM      4  C   UNL     1      -1.054  -0.006   1.552  1.00  0.00    -0.012 A 
ATOM      5  C   UNL     1       0.131  -0.472   2.136  1.00  0.00     0.010 A 
ATOM      6  C   UNL     1       1.307   0.274   2.032  1.00  0.00     0.023 A 
ENDROOT
BRANCH   1   7
ATOM      7  S   UNL     1       2.784   2.447   1.220  1.00  0.00     0.264 S 
ATOM      8  O   UNL     1       2.388   3.838   1.128  1.00  0.00    -0.201 OA
ATOM      9  O   UNL     1       3.717   2.009   2.232  1.00  0.00    -0.201 OA
BRANCH   7  10
ATOM     10  N   UNL     1       3.381   2.065  -0.281  1.00  0.00    -0.249 N 
ATOM     11  C   UNL     1       3.816   0.796  -0.680  1.00  0.00     0.233 C 
ATOM     12  O   UNL     1       3.711  -0.196   0.025  1.00  0.00    -0.274 OA
ATOM     13  H   UNL     1       3.428   2.864  -0.905  1.00  0.00     0.183 HD
BRANCH  11  14
ATOM     14  C   UNL     1       4.398   0.772  -2.079  1.00  0.00     0.097 C 
ATOM     15  C   UNL     1       4.891  -0.606  -2.480  1.00  0.00     0.014 C 
ENDBRANCH  11  14
ENDBRANCH   7  10
ENDBRANCH   1   7
BRANCH   4  16
ATOM     16  C   UNL     1      -2.272  -0.784   1.642  1.00  0.00     0.052 A 
ATOM     17  C   UNL     1      -3.126  -1.327   0.631  1.00  0.00     0.121 A 
ATOM     18  C   UNL     1      -2.901  -1.099   2.828  1.00  0.00     0.142 A 
ATOM     19  N   UNL     1      -4.192  -1.920   1.195  1.00  0.00    -0.079 NA
ATOM     20  O   UNL     1      -4.040  -1.786   2.558  1.00  0.00    -0.360 OA
ATOM     21  C   UNL     1      -2.620  -0.844   4.254  1.00  0.00     0.091 C 
BRANCH  17  22
ATOM     22  C   UNL     1      -2.969  -1.298  -0.823  1.00  0.00     0.004 A 
ATOM     23  C   UNL     1      -1.714  -1.489  -1.419  1.00  0.00     0.010 A 
ATOM     24  C   UNL     1      -4.084  -1.086  -1.647  1.00  0.00     0.010 A 
ATOM     25  C   UNL     1      -1.577  -1.454  -2.809  1.00  0.00     0.001 A 
ATOM     26  C   UNL     1      -3.945  -1.050  -3.036  1.00  0.00     0.001 A 
ATOM     27  C   UNL     1      -2.691  -1.232  -3.616  1.00  0.00     0.000 A 
ENDBRANCH  17  22
ENDBRANCH   4  16
TORSDOF 5
