REMARK SMILES Cn1cc(-c2[nH]c3cc(NC(=O)[C@H](N)C4CCCCC4)cc4c3c2C=NNC4=O)cn1
REMARK SMILES IDX 10 1 11 2 12 3 9 5 5 6 24 7 6 8 25 9 23 10 7 11 26 13 22 14
REMARK SMILES IDX 8 15 27 16 28 17 21 18 29 20 4 21 1 22 2 23 3 24 31 25 30 26
REMARK SMILES IDX 13 27 14 28 15 31 16 32 20 33 17 34 19 35 18 36
REMARK H PARENT 10 4 6 12 27 19 14 29 14 30
REMARK Flexibility Score: inf
ROOT
ATOM      1  N   UNL     1      -1.621  -0.616   1.132  1.00  0.00    -0.325 N 
ATOM      2  C   UNL     1      -2.643  -1.516   0.876  1.00  0.00     0.241 C 
ATOM      3  O   UNL     1      -2.531  -2.614   0.337  1.00  0.00    -0.273 OA
ATOM      4  H   UNL     1      -1.882   0.237   1.612  1.00  0.00     0.169 HD
ENDROOT
BRANCH   1   5
ATOM      5  C   UNL     1      -0.253  -0.744   0.809  1.00  0.00     0.044 A 
ATOM      6  C   UNL     1       4.153   0.638   0.673  1.00  0.00     0.059 A 
ATOM      7  C   UNL     1       3.910  -0.617   0.128  1.00  0.00     0.029 A 
ATOM      8  N   UNL     1       2.961   1.105   1.167  1.00  0.00    -0.354 N 
ATOM      9  C   UNL     1       4.877  -1.525  -0.414  1.00  0.00     0.144 C 
ATOM     10  C   UNL     1       2.514  -0.859   0.234  1.00  0.00     0.022 A 
ATOM     11  C   UNL     1       1.946   0.224   0.900  1.00  0.00     0.049 A 
ATOM     12  H   UNL     1       2.836   1.993   1.630  1.00  0.00     0.167 HD
ATOM     13  N   UNL     1       4.674  -2.660  -1.001  1.00  0.00    -0.180 NA
ATOM     14  C   UNL     1       1.677  -1.907  -0.166  1.00  0.00     0.053 A 
ATOM     15  C   UNL     1       0.581   0.311   1.200  1.00  0.00     0.052 A 
ATOM     16  N   UNL     1       3.496  -3.274  -1.245  1.00  0.00    -0.243 N 
ATOM     17  C   UNL     1       2.179  -3.070  -0.914  1.00  0.00     0.272 C 
ATOM     18  C   UNL     1       0.294  -1.833   0.133  1.00  0.00     0.040 A 
ATOM     19  H   UNL     1       3.609  -4.151  -1.749  1.00  0.00     0.194 HD
ATOM     20  O   UNL     1       1.369  -3.926  -1.284  1.00  0.00    -0.267 OA
BRANCH   6  21
ATOM     21  C   UNL     1       5.458   1.487   0.777  1.00  0.00     0.037 A 
ATOM     22  C   UNL     1       8.888   2.480   0.296  1.00  0.00     0.173 C 
ATOM     23  N   UNL     1       7.494   2.289   0.615  1.00  0.00    -0.275 N 
ATOM     24  C   UNL     1       6.702   1.232   0.253  1.00  0.00     0.118 A 
ATOM     25  N   UNL     1       6.845   3.221   1.334  1.00  0.00    -0.181 NA
ATOM     26  C   UNL     1       5.606   2.734   1.426  1.00  0.00     0.145 A 
ENDBRANCH   6  21
ENDBRANCH   1   5
BRANCH   2  27
ATOM     27  C   UNL     1      -4.029  -1.013   1.366  1.00  0.00     0.144 C 
BRANCH  27  28
ATOM     28  N   UNL     1      -4.731  -2.153   1.999  1.00  0.00    -0.320 NA
ATOM     29  H   UNL     1      -4.799  -2.893   1.291  1.00  0.00     0.119 HD
ATOM     30  H   UNL     1      -4.120  -2.560   2.710  1.00  0.00     0.119 HD
ENDBRANCH  27  28
BRANCH  27  31
ATOM     31  C   UNL     1      -4.861  -0.433   0.195  1.00  0.00     0.015 C 
ATOM     32  C   UNL     1      -6.294  -0.066   0.652  1.00  0.00     0.006 C 
ATOM     33  C   UNL     1      -4.192   0.790  -0.455  1.00  0.00     0.006 C 
ATOM     34  C   UNL     1      -6.975   1.002  -0.208  1.00  0.00     0.000 C 
ATOM     35  C   UNL     1      -4.958   1.284  -1.686  1.00  0.00     0.000 C 
ATOM     36  C   UNL     1      -6.457   0.997  -1.636  1.00  0.00     0.000 C 
ENDBRANCH  27  31
ENDBRANCH   2  27
TORSDOF 5
