REMARK SMILES CN[C@@H]1[C@H](O)[C@H](NC)[C@H]2O[C@@]3(O)C(=O)C[C@@H](C)O[C@H]3O[C@@H]2[C@H]1O
REMARK SMILES IDX 3 1 4 2 6 3 9 4 10 5 11 6 13 7 14 8 15 9 16 10 17 11 18 12
REMARK SMILES IDX 19 13 20 14 21 15 22 16 2 17 1 18 5 20 23 22 7 24 8 25 12 27
REMARK H PARENT 2 19 5 21 23 23 7 26 12 28
REMARK Flexibility Score: inf
ROOT
ATOM      1  C   UNL     1      -2.517  -1.468   0.642  1.00  0.00     0.115 C 
ATOM      2  C   UNL     1      -2.822  -0.011   1.070  1.00  0.00     0.153 C 
ATOM      3  C   UNL     1      -2.027   1.058   0.256  1.00  0.00     0.116 C 
ATOM      4  C   UNL     1      -0.624   0.537  -0.161  1.00  0.00     0.173 C 
ATOM      5  O   UNL     1       0.286   1.646  -0.216  1.00  0.00    -0.332 OA
ATOM      6  C   UNL     1       1.645   1.266  -0.429  1.00  0.00     0.280 C 
ATOM      7  C   UNL     1       2.534   1.830   0.698  1.00  0.00     0.199 C 
ATOM      8  O   UNL     1       2.313   2.921   1.230  1.00  0.00    -0.293 OA
ATOM      9  C   UNL     1       3.705   0.988   1.132  1.00  0.00     0.113 C 
ATOM     10  C   UNL     1       4.202   0.223  -0.082  1.00  0.00     0.126 C 
ATOM     11  C   UNL     1       5.469  -0.557   0.243  1.00  0.00     0.039 C 
ATOM     12  O   UNL     1       3.233  -0.713  -0.548  1.00  0.00    -0.344 OA
ATOM     13  C   UNL     1       1.871  -0.280  -0.484  1.00  0.00     0.320 C 
ATOM     14  O   UNL     1       1.246  -0.933   0.631  1.00  0.00    -0.338 OA
ATOM     15  C   UNL     1      -0.118  -0.509   0.842  1.00  0.00     0.182 C 
ATOM     16  C   UNL     1      -1.007  -1.765   0.829  1.00  0.00     0.165 C 
ENDROOT
BRANCH   1  17
ATOM     17  N   UNL     1      -2.978  -1.652  -0.764  1.00  0.00    -0.312 NA
ATOM     18  C   UNL     1      -3.112  -3.068  -1.105  1.00  0.00     0.101 C 
ATOM     19  H   UNL     1      -3.924  -1.251  -0.792  1.00  0.00     0.122 HD
ENDBRANCH   1  17
BRANCH   2  20
ATOM     20  O   UNL     1      -4.236   0.241   0.952  1.00  0.00    -0.390 OA
ATOM     21  H   UNL     1      -4.301   0.947   0.271  1.00  0.00     0.211 HD
ENDBRANCH   2  20
BRANCH  16  22
ATOM     22  O   UNL     1      -0.805  -2.472   2.063  1.00  0.00    -0.389 OA
ATOM     23  H   UNL     1       0.152  -2.658   2.116  1.00  0.00     0.211 HD
ENDBRANCH  16  22
BRANCH   3  24
ATOM     24  N   UNL     1      -2.867   1.509  -0.894  1.00  0.00    -0.312 NA
ATOM     25  C   UNL     1      -2.317   2.683  -1.561  1.00  0.00     0.101 C 
ATOM     26  H   UNL     1      -2.920   0.738  -1.569  1.00  0.00     0.122 HD
ENDBRANCH   3  24
BRANCH   6  27
ATOM     27  O   UNL     1       2.042   1.875  -1.654  1.00  0.00    -0.356 OA
ATOM     28  H   UNL     1       1.898   2.827  -1.499  1.00  0.00     0.214 HD
ENDBRANCH   6  27
TORSDOF 5
