REMARK SMILES Clc1ccccc1CN1CCc2sccc2C1
REMARK SMILES IDX 8 1 7 2 1 3 2 4 3 5 4 6 6 7 5 8 9 9 10 10 17 11 11 12 16 13
REMARK SMILES IDX 12 14 15 15 13 16 14 17
REMARK H PARENT
REMARK Flexibility Score: inf
ROOT
ATOM      1  C   UNL     1      -0.607   0.290  -1.093  1.00  0.00     0.122 C 
ENDROOT
BRANCH   1   2
ATOM      2  C   UNL     1      -1.823   0.270  -0.187  1.00  0.00    -0.015 A 
ATOM      3  Cl  UNL     1      -0.866   2.407   1.254  1.00  0.00    -0.084 Cl
ATOM      4  C   UNL     1      -2.017   1.178   0.866  1.00  0.00     0.045 A 
ATOM      5  C   UNL     1      -3.168   1.110   1.660  1.00  0.00     0.021 A 
ATOM      6  C   UNL     1      -4.138   0.138   1.416  1.00  0.00     0.002 A 
ATOM      7  C   UNL     1      -2.813  -0.706  -0.415  1.00  0.00     0.006 A 
ATOM      8  C   UNL     1      -3.959  -0.771   0.378  1.00  0.00     0.000 A 
ENDBRANCH   1   2
BRANCH   1   9
ATOM      9  N   UNL     1       0.193  -0.945  -1.001  1.00  0.00    -0.294 NA
ATOM     10  C   UNL     1       1.122  -1.086  -2.148  1.00  0.00     0.091 C 
ATOM     11  C   UNL     1       0.928  -1.050   0.282  1.00  0.00     0.121 C 
ATOM     12  C   UNL     1       2.241  -0.021  -2.233  1.00  0.00     0.062 C 
ATOM     13  C   UNL     1       2.154  -0.179   0.297  1.00  0.00    -0.020 A 
ATOM     14  C   UNL     1       2.764   0.261  -0.862  1.00  0.00     0.010 A 
ATOM     15  C   UNL     1       2.854   0.289   1.451  1.00  0.00     0.017 A 
ATOM     16  S   UNL     1       4.142   1.209  -0.576  1.00  0.00    -0.149 S 
ATOM     17  C   UNL     1       3.953   1.054   1.119  1.00  0.00     0.065 A 
ENDBRANCH   1   9
TORSDOF 2
