REMARK SMILES O=C(Nc1ccc(C[C@@H]2CC[C@H]([C@H](O)c3ccccc3)N2)cc1)[C@@H]1CCc2nccc(=O)n21
REMARK SMILES IDX 8 1 7 2 4 3 5 4 23 5 6 6 22 7 3 8 1 9 2 10 24 12 25 13 33 14
REMARK SMILES IDX 26 15 27 16 31 17 28 18 30 19 32 20 29 21 9 22 10 23 21 24
REMARK SMILES IDX 11 25 12 26 13 28 14 29 15 31 16 32 20 33 17 34 19 35 18 36
REMARK H PARENT 3 11 21 27 14 30
REMARK Flexibility Score: inf
ROOT
ATOM      1  C   UNL     1       1.298  -0.769  -1.973  1.00  0.00     0.054 C 
ENDROOT
BRANCH   1   2
ATOM      2  C   UNL     1      -0.135  -0.788  -1.497  1.00  0.00    -0.046 A 
ATOM      3  C   UNL     1      -2.788  -0.841  -0.536  1.00  0.00     0.041 A 
ATOM      4  C   UNL     1      -2.013  -1.999  -0.533  1.00  0.00     0.026 A 
ATOM      5  C   UNL     1      -2.228   0.343  -1.029  1.00  0.00     0.026 A 
ATOM      6  C   UNL     1      -0.697  -1.972  -1.005  1.00  0.00     0.006 A 
ATOM      7  C   UNL     1      -0.914   0.370  -1.507  1.00  0.00     0.006 A 
BRANCH   3   8
ATOM      8  N   UNL     1      -4.119  -0.781  -0.075  1.00  0.00    -0.324 N 
ATOM      9  O   UNL     1      -4.510  -2.965   0.621  1.00  0.00    -0.272 OA
ATOM     10  C   UNL     1      -4.878  -1.803   0.467  1.00  0.00     0.247 C 
ATOM     11  H   UNL     1      -4.549   0.134  -0.103  1.00  0.00     0.170 HD
BRANCH  10  12
ATOM     12  C   UNL     1      -6.349  -1.432   0.754  1.00  0.00     0.182 C 
ATOM     13  C   UNL     1      -7.238  -1.918  -0.395  1.00  0.00     0.044 C 
ATOM     14  N   UNL     1      -6.606  -0.010   0.780  1.00  0.00    -0.284 N 
ATOM     15  C   UNL     1      -7.359  -0.712  -1.327  1.00  0.00     0.078 C 
ATOM     16  C   UNL     1      -7.180   0.437  -0.388  1.00  0.00     0.112 C 
ATOM     17  C   UNL     1      -6.379   0.815   1.846  1.00  0.00     0.254 C 
ATOM     18  N   UNL     1      -7.486   1.666  -0.630  1.00  0.00    -0.243 NA
ATOM     19  C   UNL     1      -6.736   2.224   1.593  1.00  0.00     0.092 C 
ATOM     20  O   UNL     1      -5.906   0.466   2.920  1.00  0.00    -0.269 OA
ATOM     21  C   UNL     1      -7.245   2.547   0.396  1.00  0.00     0.119 C 
ENDBRANCH  10  12
ENDBRANCH   3   8
ENDBRANCH   1   2
BRANCH   1  22
ATOM     22  C   UNL     1       2.295  -0.581  -0.820  1.00  0.00     0.058 C 
ATOM     23  C   UNL     1       2.308   0.837  -0.237  1.00  0.00     0.021 C 
ATOM     24  N   UNL     1       3.696  -0.812  -1.240  1.00  0.00    -0.308 NA
ATOM     25  C   UNL     1       3.768   1.133   0.090  1.00  0.00     0.023 C 
ATOM     26  C   UNL     1       4.488  -0.187  -0.146  1.00  0.00     0.087 C 
ATOM     27  H   UNL     1       3.865  -0.289  -2.104  1.00  0.00     0.123 HD
BRANCH  26  28
ATOM     28  C   UNL     1       5.981  -0.054  -0.521  1.00  0.00     0.161 C 
BRANCH  28  29
ATOM     29  O   UNL     1       6.472  -1.351  -0.882  1.00  0.00    -0.387 OA
ATOM     30  H   UNL     1       5.709  -1.806  -1.295  1.00  0.00     0.211 HD
ENDBRANCH  28  29
BRANCH  28  31
ATOM     31  C   UNL     1       6.824   0.500   0.606  1.00  0.00    -0.018 A 
ATOM     32  C   UNL     1       7.097  -0.257   1.756  1.00  0.00     0.006 A 
ATOM     33  C   UNL     1       7.325   1.809   0.531  1.00  0.00     0.006 A 
ATOM     34  C   UNL     1       7.845   0.282   2.803  1.00  0.00     0.000 A 
ATOM     35  C   UNL     1       8.075   2.346   1.578  1.00  0.00     0.000 A 
ATOM     36  C   UNL     1       8.334   1.583   2.713  1.00  0.00     0.000 A 
ENDBRANCH  28  31
ENDBRANCH  26  28
ENDBRANCH   1  22
TORSDOF 7
