REMARK SMILES CN1C(=O)CC(=O)N(c2ccccc2)c2cc(Cl)ccc21
REMARK SMILES IDX 15 1 16 2 17 3 18 4 19 5 20 6 21 7 2 8 1 9 3 10 4 11 8 13
REMARK SMILES IDX 6 14 7 15 5 16 9 18 10 19 14 20 11 21 13 22 12 23
REMARK H PARENT
REMARK Flexibility Score: 80.00
ROOT
ATOM      1  C   UNL     1      -0.512   0.524  -0.204  1.00  0.00     0.074 A 
ATOM      2  C   UNL     1      -0.176   1.878  -0.450  1.00  0.00     0.049 A 
ATOM      3  C   UNL     1      -1.032   2.918  -0.102  1.00  0.00     0.043 A 
ATOM      4  Cl  UNL     1      -0.577   4.546  -0.410  1.00  0.00    -0.084 Cl
ATOM      5  C   UNL     1      -2.251   2.642   0.492  1.00  0.00     0.023 A 
ATOM      6  C   UNL     1      -2.619   1.315   0.721  1.00  0.00     0.030 A 
ATOM      7  C   UNL     1      -1.782   0.235   0.362  1.00  0.00     0.068 A 
ENDROOT
BRANCH   7   8
ATOM      8  N   UNL     1      -2.257  -1.089   0.624  1.00  0.00    -0.313 N 
ATOM      9  C   UNL     1      -3.154  -1.313   1.752  1.00  0.00     0.153 C 
BRANCH   8  10
ATOM     10  C   UNL     1      -2.082  -2.158  -0.250  1.00  0.00     0.236 CG0
ATOM     11  O   UNL     1      -2.596  -3.263  -0.065  1.00  0.00    -0.274 OA
ATOM     12  G   UNL     1      -1.283  -1.891  -1.483  1.00  0.00     0.000 G0
ENDBRANCH   8  10
ENDBRANCH   7   8
BRANCH   1  13
ATOM     13  N   UNL     1       0.476  -0.479  -0.524  1.00  0.00    -0.278 N 
BRANCH  13  14
ATOM     14  C   UNL     1       0.152  -1.707  -1.112  1.00  0.00     0.241 C 
ATOM     15  O   UNL     1       0.949  -2.622  -1.334  1.00  0.00    -0.274 OA
BRANCH  14  16
ATOM     16  C   UNL     1      -1.283  -1.891  -1.483  1.00  0.00     0.201 CG0
ATOM     17  G   UNL     1      -2.082  -2.158  -0.250  1.00  0.00     0.000 G0
ENDBRANCH  14  16
ENDBRANCH  13  14
BRANCH  13  18
ATOM     18  C   UNL     1       1.852  -0.178  -0.198  1.00  0.00     0.049 A 
ATOM     19  C   UNL     1       2.181   0.536   0.971  1.00  0.00     0.027 A 
ATOM     20  C   UNL     1       2.906  -0.606  -1.019  1.00  0.00     0.027 A 
ATOM     21  C   UNL     1       3.512   0.824   1.293  1.00  0.00     0.002 A 
ATOM     22  C   UNL     1       4.236  -0.315  -0.698  1.00  0.00     0.002 A 
ATOM     23  C   UNL     1       4.539   0.401   0.456  1.00  0.00     0.000 A 
ENDBRANCH  13  18
ENDBRANCH   1  13
TORSDOF 1
