REMARK SMILES CC(=O)Oc1ccc(C2(c3ccc(OC(C)=O)cc3)C(=O)Nc3ccccc32)cc1
REMARK SMILES IDX 9 1 20 2 21 3 22 4 23 5 24 6 25 7 26 8 27 9 28 10 8 12 5 13
REMARK SMILES IDX 6 14 30 15 7 16 29 17 4 18 2 19 1 20 3 21 10 22 11 23 19 24
REMARK SMILES IDX 12 25 18 26 13 27 14 28 15 29 16 30 17 31
REMARK H PARENT 22 11
REMARK Flexibility Score: inf
ROOT
ATOM      1  C   UNL     1      -0.229  -0.888   0.698  1.00  0.00     0.126 C 
ATOM      2  C   UNL     1      -0.689  -1.478   2.101  1.00  0.00     0.244 C 
ATOM      3  O   UNL     1      -0.855  -0.878   3.154  1.00  0.00    -0.273 OA
ATOM      4  N   UNL     1      -0.866  -2.849   1.956  1.00  0.00    -0.324 N 
ATOM      5  C   UNL     1      -0.534  -3.272   0.683  1.00  0.00     0.046 A 
ATOM      6  C   UNL     1      -0.553  -4.571   0.217  1.00  0.00     0.026 A 
ATOM      7  C   UNL     1      -0.141  -4.789  -1.099  1.00  0.00     0.002 A 
ATOM      8  C   UNL     1       0.282  -3.718  -1.905  1.00  0.00     0.000 A 
ATOM      9  C   UNL     1       0.292  -2.410  -1.410  1.00  0.00     0.008 A 
ATOM     10  C   UNL     1      -0.134  -2.193  -0.105  1.00  0.00     0.000 A 
ATOM     11  H   UNL     1      -1.159  -3.441   2.718  1.00  0.00     0.169 HD
ENDROOT
BRANCH   1  12
ATOM     12  C   UNL     1      -1.347   0.086   0.240  1.00  0.00    -0.023 A 
ATOM     13  C   UNL     1      -3.376   1.898  -0.484  1.00  0.00     0.130 A 
ATOM     14  C   UNL     1      -3.230   0.707  -1.190  1.00  0.00     0.047 A 
ATOM     15  C   UNL     1      -2.518   2.213   0.563  1.00  0.00     0.047 A 
ATOM     16  C   UNL     1      -2.230  -0.198  -0.819  1.00  0.00     0.009 A 
ATOM     17  C   UNL     1      -1.519   1.309   0.927  1.00  0.00     0.009 A 
BRANCH  13  18
ATOM     18  O   UNL     1      -4.326   2.863  -0.846  1.00  0.00    -0.427 OA
BRANCH  18  19
ATOM     19  C   UNL     1      -5.653   2.451  -0.916  1.00  0.00     0.308 C 
ATOM     20  C   UNL     1      -6.495   3.620  -1.333  1.00  0.00     0.139 C 
ATOM     21  O   UNL     1      -6.096   1.336  -0.673  1.00  0.00    -0.252 OA
ENDBRANCH  18  19
ENDBRANCH  13  18
ENDBRANCH   1  12
BRANCH   1  22
ATOM     22  C   UNL     1       1.169  -0.220   0.766  1.00  0.00    -0.023 A 
ATOM     23  C   UNL     1       1.582   0.667  -0.252  1.00  0.00     0.009 A 
ATOM     24  C   UNL     1       2.087  -0.514   1.794  1.00  0.00     0.009 A 
ATOM     25  C   UNL     1       2.849   1.255  -0.232  1.00  0.00     0.047 A 
ATOM     26  C   UNL     1       3.356   0.072   1.817  1.00  0.00     0.047 A 
ATOM     27  C   UNL     1       3.730   0.938   0.796  1.00  0.00     0.130 A 
BRANCH  27  28
ATOM     28  O   UNL     1       4.985   1.547   0.880  1.00  0.00    -0.427 OA
BRANCH  28  29
ATOM     29  C   UNL     1       5.876   1.191  -0.127  1.00  0.00     0.308 C 
ATOM     30  C   UNL     1       7.158   1.942   0.082  1.00  0.00     0.139 C 
ATOM     31  O   UNL     1       5.680   0.409  -1.047  1.00  0.00    -0.252 OA
ENDBRANCH  28  29
ENDBRANCH  27  28
ENDBRANCH   1  22
TORSDOF 6
