REMARK SMILES O=C(O)c1cc(/N=N/c2ccc(S(=O)(=O)Nc3ccccn3)cc2)ccc1O
REMARK SMILES IDX 9 1 10 2 11 3 12 4 23 5 24 6 8 7 7 8 6 9 4 10 5 11 27 12
REMARK SMILES IDX 26 13 25 14 2 15 1 16 3 17 28 19 13 21 14 22 15 23 16 24
REMARK SMILES IDX 17 26 18 27 22 28 19 29 21 30 20 31
REMARK H PARENT 3 18 28 20 16 25
REMARK Flexibility Score: inf
ROOT
ATOM      1  C   UNL     1       0.420   0.254   1.095  1.00  0.00     0.086 A 
ATOM      2  C   UNL     1      -0.539  -0.580   1.683  1.00  0.00     0.031 A 
ATOM      3  C   UNL     1      -1.833  -0.116   1.930  1.00  0.00     0.024 A 
ATOM      4  C   UNL     1      -2.172   1.195   1.584  1.00  0.00     0.088 A 
ATOM      5  C   UNL     1      -1.220   2.050   1.021  1.00  0.00     0.024 A 
ATOM      6  C   UNL     1       0.072   1.576   0.780  1.00  0.00     0.031 A 
ENDROOT
BRANCH   1   7
ATOM      7  N   UNL     1       1.722  -0.238   0.888  1.00  0.00    -0.151 NA
ATOM      8  N   UNL     1       2.009  -0.225  -0.330  1.00  0.00    -0.151 NA
BRANCH   8   9
ATOM      9  C   UNL     1       3.306  -0.727  -0.534  1.00  0.00     0.087 A 
ATOM     10  C   UNL     1       5.723  -0.566  -0.280  1.00  0.00     0.103 A 
ATOM     11  C   UNL     1       4.437  -0.061  -0.040  1.00  0.00     0.049 A 
ATOM     12  C   UNL     1       5.871  -1.742  -1.029  1.00  0.00     0.130 A 
ATOM     13  C   UNL     1       4.753  -2.402  -1.534  1.00  0.00     0.049 A 
ATOM     14  C   UNL     1       3.477  -1.892  -1.290  1.00  0.00     0.034 A 
BRANCH  10  15
ATOM     15  C   UNL     1       6.923   0.121   0.241  1.00  0.00     0.339 C 
ATOM     16  O   UNL     1       8.066  -0.272   0.074  1.00  0.00    -0.246 OA
BRANCH  15  17
ATOM     17  O   UNL     1       6.652   1.241   0.929  1.00  0.00    -0.478 OA
ATOM     18  H   UNL     1       7.527   1.581   1.212  1.00  0.00     0.297 HD
ENDBRANCH  15  17
ENDBRANCH  10  15
BRANCH  12  19
ATOM     19  O   UNL     1       7.084  -2.310  -1.314  1.00  0.00    -0.507 OA
ATOM     20  H   UNL     1       7.794  -1.768  -0.908  1.00  0.00     0.293 HD
ENDBRANCH  12  19
ENDBRANCH   8   9
ENDBRANCH   1   7
BRANCH   4  21
ATOM     21  S   UNL     1      -3.800   1.814   1.930  1.00  0.00     0.263 S 
ATOM     22  O   UNL     1      -3.628   3.167   2.425  1.00  0.00    -0.201 OA
ATOM     23  O   UNL     1      -4.534   0.845   2.716  1.00  0.00    -0.201 OA
BRANCH  21  24
ATOM     24  N   UNL     1      -4.510   1.985   0.428  1.00  0.00    -0.263 N 
ATOM     25  H   UNL     1      -4.980   2.875   0.315  1.00  0.00     0.182 HD
BRANCH  24  26
ATOM     26  C   UNL     1      -5.009   0.850  -0.235  1.00  0.00     0.139 A 
ATOM     27  C   UNL     1      -6.158   0.960  -1.004  1.00  0.00     0.048 A 
ATOM     28  N   UNL     1      -4.248  -0.254  -0.196  1.00  0.00    -0.239 NA
ATOM     29  C   UNL     1      -6.580  -0.153  -1.727  1.00  0.00     0.005 A 
ATOM     30  C   UNL     1      -4.680  -1.322  -0.902  1.00  0.00     0.113 A 
ATOM     31  C   UNL     1      -5.830  -1.321  -1.672  1.00  0.00     0.020 A 
ENDBRANCH  24  26
ENDBRANCH  21  24
ENDBRANCH   4  21
TORSDOF 8
