REMARK SMILES CC(C(=O)O)c1ccc(CC2CCCC2=O)cc1
REMARK SMILES IDX 6 1 7 2 8 3 9 4 17 5 18 6 2 7 1 8 3 9 4 10 5 11 10 13 11 14
REMARK SMILES IDX 12 15 15 16 13 17 14 18 16 19
REMARK H PARENT 5 12
REMARK Flexibility Score: inf
ROOT
ATOM      1  C   UNL     1       2.042  -0.448   0.467  1.00  0.00    -0.034 A 
ATOM      2  C   UNL     1       1.114  -1.051   1.328  1.00  0.00     0.005 A 
ATOM      3  C   UNL     1      -0.095  -0.419   1.631  1.00  0.00     0.004 A 
ATOM      4  C   UNL     1      -0.405   0.830   1.082  1.00  0.00    -0.047 A 
ATOM      5  C   UNL     1       0.526   1.441   0.234  1.00  0.00     0.004 A 
ATOM      6  C   UNL     1       1.735   0.810  -0.071  1.00  0.00     0.005 A 
ENDROOT
BRANCH   1   7
ATOM      7  C   UNL     1       3.352  -1.147   0.155  1.00  0.00     0.126 C 
ATOM      8  C   UNL     1       3.546  -1.385  -1.345  1.00  0.00     0.025 C 
BRANCH   7   9
ATOM      9  C   UNL     1       4.535  -0.434   0.784  1.00  0.00     0.310 C 
ATOM     10  O   UNL     1       4.965  -0.623   1.913  1.00  0.00    -0.252 OA
BRANCH   9  11
ATOM     11  O   UNL     1       5.098   0.511   0.005  1.00  0.00    -0.481 OA
ATOM     12  H   UNL     1       5.798   0.892   0.577  1.00  0.00     0.296 HD
ENDBRANCH   9  11
ENDBRANCH   7   9
ENDBRANCH   1   7
BRANCH   4  13
ATOM     13  C   UNL     1      -1.717   1.509   1.400  1.00  0.00     0.047 C 
BRANCH  13  14
ATOM     14  C   UNL     1      -2.926   1.051   0.584  1.00  0.00     0.060 C 
ATOM     15  C   UNL     1      -2.769   1.086  -0.940  1.00  0.00     0.012 C 
ATOM     16  C   UNL     1      -3.340  -0.388   0.816  1.00  0.00     0.136 C 
ATOM     17  C   UNL     1      -3.805   0.085  -1.441  1.00  0.00     0.009 C 
ATOM     18  C   UNL     1      -3.697  -1.086  -0.472  1.00  0.00     0.076 C 
ATOM     19  O   UNL     1      -3.403  -0.924   1.916  1.00  0.00    -0.299 OA
ENDBRANCH  13  14
ENDBRANCH   4  13
TORSDOF 5
