REMARK SMILES CNc1ccc(/C=C/C=C/c2nc3ccc(OCC(O)C[18F])cc3s2)cn1
REMARK SMILES IDX 11 1 12 2 13 3 24 4 25 5 23 6 16 7 15 8 14 9 10 10 9 11 8 12
REMARK SMILES IDX 7 13 6 14 3 15 4 16 27 17 5 18 26 19 2 20 1 21 17 23 18 24
REMARK SMILES IDX 19 25 20 26 21 28 22 29
REMARK H PARENT 2 22 20 27
REMARK Flexibility Score: inf
ROOT
ATOM      1  C   UNL     1       0.582   0.793   0.029  1.00  0.00     0.117 A 
ATOM      2  N   UNL     1       1.066  -0.434   0.004  1.00  0.00    -0.237 NA
ATOM      3  C   UNL     1       2.448  -0.421   0.078  1.00  0.00     0.082 A 
ATOM      4  C   UNL     1       3.029   0.842   0.159  1.00  0.00     0.059 A 
ATOM      5  S   UNL     1       1.787   2.030   0.142  1.00  0.00    -0.114 S 
ATOM      6  C   UNL     1       4.421   1.012   0.239  1.00  0.00     0.067 A 
ATOM      7  C   UNL     1       5.242  -0.123   0.236  1.00  0.00     0.121 A 
ATOM      8  C   UNL     1       4.678  -1.393   0.158  1.00  0.00     0.049 A 
ATOM      9  C   UNL     1       3.287  -1.551   0.079  1.00  0.00     0.034 A 
ENDROOT
BRANCH   1  10
ATOM     10  C   UNL     1      -0.791   1.172  -0.027  1.00  0.00     0.039 C 
ATOM     11  C   UNL     1      -1.758   0.245  -0.116  1.00  0.00     0.003 C 
BRANCH  11  12
ATOM     12  C   UNL     1      -3.166   0.577  -0.175  1.00  0.00     0.001 C 
ATOM     13  C   UNL     1      -4.124  -0.358  -0.276  1.00  0.00     0.010 C 
BRANCH  13  14
ATOM     14  C   UNL     1      -5.559  -0.060  -0.345  1.00  0.00    -0.007 A 
ATOM     15  C   UNL     1      -8.279   0.459  -0.419  1.00  0.00     0.125 A 
ATOM     16  C   UNL     1      -7.764  -0.590  -1.172  1.00  0.00     0.047 A 
ATOM     17  N   UNL     1      -7.498   1.239   0.348  1.00  0.00    -0.239 NA
ATOM     18  C   UNL     1      -6.395  -0.856  -1.126  1.00  0.00     0.013 A 
ATOM     19  C   UNL     1      -6.170   0.961   0.376  1.00  0.00     0.121 A 
BRANCH  15  20
ATOM     20  N   UNL     1      -9.634   0.792  -0.432  1.00  0.00    -0.373 N 
ATOM     21  C   UNL     1     -10.514  -0.285  -0.010  1.00  0.00     0.141 C 
ATOM     22  H   UNL     1      -9.691   1.588   0.204  1.00  0.00     0.161 HD
ENDBRANCH  15  20
ENDBRANCH  13  14
ENDBRANCH  11  12
ENDBRANCH   1  10
BRANCH   7  23
ATOM     23  O   UNL     1       6.580   0.157   0.313  1.00  0.00    -0.491 OA
BRANCH  23  24
ATOM     24  C   UNL     1       7.486  -0.951   0.313  1.00  0.00     0.264 C 
BRANCH  24  25
ATOM     25  C   UNL     1       8.930  -0.444   0.404  1.00  0.00     0.183 C 
BRANCH  25  26
ATOM     26  O   UNL     1       9.193   0.019   1.738  1.00  0.00    -0.387 OA
ATOM     27  H   UNL     1      10.063   0.461   1.710  1.00  0.00     0.211 HD
ENDBRANCH  25  26
BRANCH  25  28
ATOM     28  C   UNL     1       9.211   0.680  -0.587  1.00  0.00     0.249 C 
ATOM     29  F   UNL     1      10.550   0.945  -0.548  1.00  0.00    -0.248 F 
ENDBRANCH  25  28
ENDBRANCH  24  25
ENDBRANCH  23  24
ENDBRANCH   7  23
TORSDOF 9
