REMARK SMILES Cc1c(/C=C2\C(=O)Nc3ccc(F)cc32)[nH]c2c1C(=O)N(C[C@H](O)CN1CCOCC1)CCC2
REMARK SMILES IDX 22 1 21 2 19 3 20 4 18 5 1 6 2 7 3 8 16 9 17 10 4 12 5 13
REMARK SMILES IDX 6 14 15 15 7 16 8 17 9 18 14 19 10 21 12 22 11 23 13 24
REMARK SMILES IDX 34 25 32 27 33 28 23 30 24 31 25 33 26 34 27 35 31 36 28 37
REMARK SMILES IDX 30 38 29 39
REMARK H PARENT 16 11 8 20 24 32
REMARK Flexibility Score: 90.00
ROOT
ATOM      1  C   UNL     1      -2.540   0.468   0.976  1.00  0.00     0.152 C 
ENDROOT
BRANCH   1   2
ATOM      2  N   UNL     1      -1.260  -0.114   0.545  1.00  0.00    -0.336 N 
BRANCH   2   3
ATOM      3  C   UNL     1      -0.205   0.753   0.236  1.00  0.00     0.256 C 
ATOM      4  O   UNL     1      -0.328   1.970   0.381  1.00  0.00    -0.269 OA
BRANCH   3   5
ATOM      5  C   UNL     1       1.087   0.204  -0.227  1.00  0.00     0.064 A 
ATOM      6  C   UNL     1       2.569   2.256   0.456  1.00  0.00     0.047 C 
ATOM      7  C   UNL     1       2.354   0.903  -0.133  1.00  0.00    -0.013 A 
ATOM      8  C   UNL     1       3.328   0.084  -0.667  1.00  0.00     0.043 A 
ATOM      9  N   UNL     1       2.724  -1.066  -1.083  1.00  0.00    -0.358 N 
ATOM     10  C   UNL     1       1.368  -1.013  -0.847  1.00  0.00     0.028 A 
ATOM     11  H   UNL     1       3.202  -1.853  -1.497  1.00  0.00     0.166 HD
BRANCH   8  12
ATOM     12  C   UNL     1       4.719   0.226  -0.862  1.00  0.00     0.041 C 
ATOM     13  C   UNL     1       5.629  -0.188   0.034  1.00  0.00     0.051 C 
ATOM     14  C   UNL     1       5.395  -0.909   1.342  1.00  0.00     0.256 C 
ATOM     15  C   UNL     1       7.079   0.020  -0.083  1.00  0.00     0.014 A 
ATOM     16  O   UNL     1       4.356  -1.325   1.817  1.00  0.00    -0.269 OA
ATOM     17  N   UNL     1       6.657  -1.038   1.906  1.00  0.00    -0.321 N 
ATOM     18  C   UNL     1       7.644  -0.505   1.085  1.00  0.00     0.049 A 
ATOM     19  C   UNL     1       7.883   0.589  -1.054  1.00  0.00     0.050 A 
ATOM     20  H   UNL     1       6.801  -1.488   2.797  1.00  0.00     0.170 HD
ATOM     21  C   UNL     1       9.003  -0.480   1.335  1.00  0.00     0.030 A 
ATOM     22  C   UNL     1       9.257   0.618  -0.819  1.00  0.00     0.123 A 
ATOM     23  C   UNL     1       9.819   0.094   0.356  1.00  0.00     0.041 A 
ATOM     24  F   UNL     1      10.065   1.152  -1.746  1.00  0.00    -0.207 F 
ENDBRANCH   8  12
BRANCH  10  25
ATOM     25  C   UNL     1       0.538  -2.186  -1.241  1.00  0.00     0.056 CG0
ATOM     26  G   UNL     1      -0.944  -2.041  -0.949  1.00  0.00     0.000 G0
ENDBRANCH  10  25
ENDBRANCH   3   5
ENDBRANCH   2   3
BRANCH   2  27
ATOM     27  C   UNL     1      -1.173  -1.566   0.477  1.00  0.00     0.120 C 
BRANCH  27  28
ATOM     28  C   UNL     1      -0.944  -2.041  -0.949  1.00  0.00     0.028 CG0
ATOM     29  G   UNL     1       0.538  -2.186  -1.241  1.00  0.00     0.000 G0
ENDBRANCH  27  28
ENDBRANCH   2  27
ENDBRANCH   1   2
BRANCH   1  30
ATOM     30  C   UNL     1      -3.696   0.242  -0.019  1.00  0.00     0.148 C 
BRANCH  30  31
ATOM     31  O   UNL     1      -3.419   0.873  -1.276  1.00  0.00    -0.390 OA
ATOM     32  H   UNL     1      -4.297   1.020  -1.685  1.00  0.00     0.211 HD
ENDBRANCH  30  31
BRANCH  30  33
ATOM     33  C   UNL     1      -5.011   0.828   0.547  1.00  0.00     0.118 C 
BRANCH  33  34
ATOM     34  N   UNL     1      -6.111   0.737  -0.438  1.00  0.00    -0.296 NA
ATOM     35  C   UNL     1      -6.672  -0.629  -0.557  1.00  0.00     0.113 C 
ATOM     36  C   UNL     1      -7.182   1.703  -0.094  1.00  0.00     0.113 C 
ATOM     37  C   UNL     1      -7.979  -0.827   0.230  1.00  0.00     0.175 C 
ATOM     38  C   UNL     1      -8.536   1.307  -0.700  1.00  0.00     0.175 C 
ATOM     39  O   UNL     1      -9.027   0.058  -0.187  1.00  0.00    -0.379 OA
ENDBRANCH  33  34
ENDBRANCH  30  33
ENDBRANCH   1  30
TORSDOF 6
