REMARK SMILES O=c1n(CCCN2CCN(c3cccc(Cl)c3)CC2)nc2ccccn12
REMARK SMILES IDX 5 1 4 2 3 3 1 4 2 5 26 6 20 7 21 8 25 9 22 10 24 11 23 12
REMARK SMILES IDX 6 13 7 14 8 15 19 16 9 17 18 18 10 19 11 20 12 21 17 22
REMARK SMILES IDX 13 23 15 24 14 25 16 26
REMARK H PARENT
REMARK Flexibility Score: inf
ROOT
ATOM      1  C   UNL     1       1.541  -2.119  -0.659  1.00  0.00     0.039 C 
ENDROOT
BRANCH   1   2
ATOM      2  C   UNL     1       2.716  -2.541   0.223  1.00  0.00     0.151 C 
BRANCH   2   3
ATOM      3  N   UNL     1       3.747  -1.537   0.320  1.00  0.00    -0.213 N 
ATOM      4  O   UNL     1       3.245  -0.515   2.381  1.00  0.00    -0.246 OA
ATOM      5  C   UNL     1       3.912  -0.607   1.361  1.00  0.00     0.350 C 
ATOM      6  N   UNL     1       4.966   0.179   0.961  1.00  0.00    -0.250 N 
ATOM      7  N   UNL     1       4.653  -1.298  -0.696  1.00  0.00    -0.150 NA
ATOM      8  C   UNL     1       5.340  -0.288  -0.259  1.00  0.00     0.161 C 
ATOM      9  C   UNL     1       5.544   1.239   1.600  1.00  0.00     0.098 C 
ATOM     10  C   UNL     1       6.461   0.400  -0.933  1.00  0.00     0.050 C 
ATOM     11  C   UNL     1       6.563   1.878   1.005  1.00  0.00     0.019 C 
ATOM     12  C   UNL     1       7.030   1.439  -0.298  1.00  0.00     0.005 C 
ENDBRANCH   2   3
ENDBRANCH   1   2
BRANCH   1  13
ATOM     13  C   UNL     1       0.762  -0.935  -0.069  1.00  0.00     0.086 C 
BRANCH  13  14
ATOM     14  N   UNL     1      -0.415  -0.596  -0.884  1.00  0.00    -0.300 NA
ATOM     15  C   UNL     1      -0.840   0.797  -0.622  1.00  0.00     0.106 C 
ATOM     16  C   UNL     1      -1.543  -1.536  -0.698  1.00  0.00     0.106 C 
ATOM     17  C   UNL     1      -2.286   1.107  -1.070  1.00  0.00     0.132 C 
ATOM     18  C   UNL     1      -2.727  -1.023   0.160  1.00  0.00     0.132 C 
ATOM     19  N   UNL     1      -3.250   0.251  -0.358  1.00  0.00    -0.369 N 
BRANCH  19  20
ATOM     20  C   UNL     1      -4.554   0.658  -0.130  1.00  0.00     0.038 A 
ATOM     21  C   UNL     1      -5.341   0.094   0.889  1.00  0.00     0.026 A 
ATOM     22  C   UNL     1      -5.163   1.656  -0.909  1.00  0.00     0.046 A 
ATOM     23  C   UNL     1      -6.661   0.500   1.125  1.00  0.00     0.004 A 
ATOM     24  C   UNL     1      -6.481   2.065  -0.679  1.00  0.00     0.043 A 
ATOM     25  C   UNL     1      -7.234   1.491   0.337  1.00  0.00     0.020 A 
ATOM     26  Cl  UNL     1      -7.179   3.290  -1.668  1.00  0.00    -0.084 Cl
ENDBRANCH  19  20
ENDBRANCH  13  14
ENDBRANCH   1  13
TORSDOF 5
