REMARK SMILES COc1cc(F)ccc1-c1cc(Nc2cc(C[S@@](C)(=N)=O)ccn2)ncc1F
REMARK SMILES IDX 13 1 12 3 10 4 11 5 27 6 26 7 28 8 25 9 9 10 3 11 4 12 8 13
REMARK SMILES IDX 5 14 7 15 6 16 2 17 1 18 14 19 24 20 15 21 23 22 16 23 22 24
REMARK SMILES IDX 17 25 18 26 19 27 20 28 21 29
REMARK H PARENT 13 2 20 30
REMARK Flexibility Score: inf
ROOT
ATOM      1  N   UNL     1      -0.461  -0.929  -0.783  1.00  0.00    -0.325 N 
ATOM      2  H   UNL     1       0.008  -1.538  -1.443  1.00  0.00     0.170 HD
ENDROOT
BRANCH   1   3
ATOM      3  C   UNL     1       0.423  -0.378   0.161  1.00  0.00     0.132 A 
ATOM      4  C   UNL     1       2.542   0.753   0.573  1.00  0.00     0.026 A 
ATOM      5  C   UNL     1       1.620   0.169  -0.311  1.00  0.00     0.059 A 
ATOM      6  C   UNL     1       2.203   0.770   1.924  1.00  0.00     0.149 A 
ATOM      7  C   UNL     1       0.999   0.222   2.322  1.00  0.00     0.153 A 
ATOM      8  F   UNL     1       3.021   1.310   2.840  1.00  0.00    -0.205 F 
ATOM      9  N   UNL     1       0.108  -0.342   1.474  1.00  0.00    -0.236 NA
BRANCH   4  10
ATOM     10  C   UNL     1       3.807   1.333   0.082  1.00  0.00     0.027 A 
ATOM     11  C   UNL     1       4.778   0.558  -0.599  1.00  0.00     0.129 A 
ATOM     12  C   UNL     1       5.956   1.160  -1.054  1.00  0.00     0.086 A 
ATOM     13  C   UNL     1       4.063   2.704   0.293  1.00  0.00     0.016 A 
ATOM     14  C   UNL     1       6.174   2.515  -0.831  1.00  0.00     0.126 A 
ATOM     15  C   UNL     1       5.242   3.293  -0.162  1.00  0.00     0.040 A 
ATOM     16  F   UNL     1       7.306   3.079  -1.272  1.00  0.00    -0.207 F 
BRANCH  11  17
ATOM     17  O   UNL     1       4.483  -0.773  -0.766  1.00  0.00    -0.496 OA
ATOM     18  C   UNL     1       5.492  -1.608  -1.321  1.00  0.00     0.278 C 
ENDBRANCH  11  17
ENDBRANCH   4  10
ENDBRANCH   1   3
BRANCH   1  19
ATOM     19  C   UNL     1      -1.741  -1.448  -0.580  1.00  0.00     0.131 A 
ATOM     20  N   UNL     1      -2.076  -2.490  -1.372  1.00  0.00    -0.239 NA
ATOM     21  C   UNL     1      -2.645  -0.900   0.326  1.00  0.00     0.051 A 
ATOM     22  C   UNL     1      -3.308  -3.023  -1.227  1.00  0.00     0.114 A 
ATOM     23  C   UNL     1      -3.928  -1.448   0.456  1.00  0.00    -0.029 A 
ATOM     24  C   UNL     1      -4.256  -2.548  -0.337  1.00  0.00     0.025 A 
BRANCH  23  25
ATOM     25  C   UNL     1      -4.917  -0.885   1.439  1.00  0.00     0.150 C 
BRANCH  25  26
ATOM     26  S   UNL     1      -5.587   0.689   0.876  1.00  0.00     0.045 S 
ATOM     27  C   UNL     1      -6.062   0.405  -0.821  1.00  0.00     0.134 C 
ATOM     28  N   UNL     1      -6.903   0.907   1.660  1.00  0.00    -0.253 NA
ATOM     29  O   UNL     1      -4.521   1.671   0.865  1.00  0.00    -0.250 OA
ATOM     30  H   UNL     1      -7.302   1.824   1.449  1.00  0.00     0.198 HD
ENDBRANCH  25  26
ENDBRANCH  23  25
ENDBRANCH   1  19
TORSDOF 6
