REMARK SMILES COC(=O)C1=C(C)NC(C)=C(C(=O)OCC(C)C)C1c1ccccc1[N+](=O)[O-]
REMARK SMILES IDX 12 1 13 2 11 3 5 4 6 5 19 6 7 7 8 8 9 9 10 11 3 12 4 13 2 14
REMARK SMILES IDX 1 15 20 16 21 17 25 18 22 19 24 20 23 21 26 22 27 23 28 24
REMARK SMILES IDX 14 25 15 26 16 27 17 28 18 29
REMARK H PARENT 8 10
REMARK Flexibility Score: inf
ROOT
ATOM      1  C   UNL     1       1.592   0.848  -0.994  1.00  0.00     0.336 C 
ATOM      2  O   UNL     1       2.184   1.678  -0.321  1.00  0.00    -0.246 OA
ENDROOT
BRANCH   1   3
ATOM      3  C   UNL     1       0.127   0.863  -1.186  1.00  0.00     0.069 C 
ATOM      4  C   UNL     1      -2.166   1.280  -0.164  1.00  0.00     0.069 C 
ATOM      5  C   UNL     1      -2.690   1.137  -1.404  1.00  0.00     0.023 C 
ATOM      6  C   UNL     1      -0.683   1.038   0.094  1.00  0.00     0.105 C 
ATOM      7  C   UNL     1      -4.157   1.246  -1.734  1.00  0.00     0.065 C 
ATOM      8  N   UNL     1      -1.855   0.835  -2.468  1.00  0.00    -0.362 N 
ATOM      9  C   UNL     1      -0.473   0.769  -2.393  1.00  0.00     0.023 C 
ATOM     10  H   UNL     1      -2.281   0.739  -3.387  1.00  0.00     0.166 HD
ATOM     11  C   UNL     1       0.252   0.632  -3.707  1.00  0.00     0.065 C 
BRANCH   4  12
ATOM     12  C   UNL     1      -2.957   1.730   1.005  1.00  0.00     0.336 C 
ATOM     13  O   UNL     1      -2.865   1.244   2.121  1.00  0.00    -0.246 OA
BRANCH  12  14
ATOM     14  O   UNL     1      -3.706   2.813   0.674  1.00  0.00    -0.466 OA
ATOM     15  C   UNL     1      -4.466   3.345   1.759  1.00  0.00     0.282 C 
ENDBRANCH  12  14
ENDBRANCH   4  12
BRANCH   6  16
ATOM     16  C   UNL     1      -0.399  -0.099   1.084  1.00  0.00     0.042 A 
ATOM     17  C   UNL     1       0.377   0.200   2.224  1.00  0.00     0.012 A 
ATOM     18  C   UNL     1      -0.821  -1.435   0.942  1.00  0.00     0.273 A 
ATOM     19  C   UNL     1       0.700  -0.783   3.166  1.00  0.00     0.001 A 
ATOM     20  C   UNL     1      -0.502  -2.427   1.883  1.00  0.00     0.086 A 
ATOM     21  C   UNL     1       0.260  -2.093   2.999  1.00  0.00     0.007 A 
BRANCH  18  22
ATOM     22  N   UNL     1      -1.590  -1.879  -0.204  1.00  0.00     0.063 N 
ATOM     23  O   UNL     1      -0.952  -2.318  -1.169  1.00  0.00    -0.258 OA
ATOM     24  O   UNL     1      -2.824  -1.847  -0.101  1.00  0.00    -0.258 OA
ENDBRANCH  18  22
ENDBRANCH   6  16
ENDBRANCH   1   3
BRANCH   1  25
ATOM     25  O   UNL     1       2.129  -0.251  -1.575  1.00  0.00    -0.462 OA
BRANCH  25  26
ATOM     26  C   UNL     1       3.532  -0.454  -1.349  1.00  0.00     0.236 C 
BRANCH  26  27
ATOM     27  C   UNL     1       3.768  -1.210  -0.034  1.00  0.00     0.021 C 
ATOM     28  C   UNL     1       5.264  -1.342   0.242  1.00  0.00     0.011 C 
ATOM     29  C   UNL     1       3.108  -2.590  -0.061  1.00  0.00     0.011 C 
ENDBRANCH  26  27
ENDBRANCH  25  26
ENDBRANCH   1  25
TORSDOF 8
