REMARK SMILES CC(O)Cn1cnc2c1c(=O)n(C)c(=O)n2C
REMARK SMILES IDX 1 1 2 2 3 3 4 5 5 6 6 7 9 8 7 9 8 10 10 11 16 12 11 13 12 14
REMARK SMILES IDX 14 15 17 16 13 17 15 18
REMARK H PARENT 3 4
REMARK Flexibility Score: inf
ROOT
ATOM      1  C   UNL     1       4.143   0.571   0.382  1.00  0.00     0.040 C 
ATOM      2  C   UNL     1       2.873   0.417  -0.444  1.00  0.00     0.131 C 
ENDROOT
BRANCH   2   3
ATOM      3  O   UNL     1       3.236   0.411  -1.828  1.00  0.00    -0.392 OA
ATOM      4  H   UNL     1       3.617   1.283  -2.034  1.00  0.00     0.211 HD
ENDBRANCH   2   3
BRANCH   2   5
ATOM      5  C   UNL     1       2.159  -0.895  -0.111  1.00  0.00     0.155 C 
BRANCH   5   6
ATOM      6  N   UNL     1       0.799  -0.925  -0.623  1.00  0.00    -0.322 N 
ATOM      7  C   UNL     1       0.399  -1.511  -1.796  1.00  0.00     0.202 A 
ATOM      8  C   UNL     1      -0.321  -0.417  -0.029  1.00  0.00     0.152 A 
ATOM      9  N   UNL     1      -0.906  -1.424  -1.964  1.00  0.00    -0.218 NA
ATOM     10  C   UNL     1      -1.343  -0.744  -0.868  1.00  0.00     0.167 A 
ATOM     11  C   UNL     1      -0.510   0.314   1.176  1.00  0.00     0.282 C 
ATOM     12  N   UNL     1      -2.644  -0.395  -0.597  1.00  0.00    -0.279 N 
ATOM     13  O   UNL     1       0.423   0.652   1.899  1.00  0.00    -0.267 OA
ATOM     14  N   UNL     1      -1.852   0.613   1.425  1.00  0.00    -0.261 N 
ATOM     15  C   UNL     1      -2.933   0.313   0.569  1.00  0.00     0.332 C 
ATOM     16  C   UNL     1      -3.700  -0.748  -1.529  1.00  0.00     0.157 C 
ATOM     17  C   UNL     1      -2.172   1.356   2.628  1.00  0.00     0.159 C 
ATOM     18  O   UNL     1      -4.081   0.671   0.849  1.00  0.00    -0.247 OA
ENDBRANCH   5   6
ENDBRANCH   2   5
TORSDOF 3
