REMARK SMILES Cn1cc(-c2ccc3nnc(C(F)(F)c4ccc5ncccc5c4)n3n2)cn1
REMARK SMILES IDX 5 1 26 2 25 3 8 4 7 5 6 6 9 7 10 8 11 9 4 10 1 11 2 12 3 13
REMARK SMILES IDX 28 14 27 15 12 16 13 17 14 18 15 19 16 20 24 21 17 22 23 23
REMARK SMILES IDX 18 24 22 25 19 26 21 27 20 28
REMARK H PARENT
REMARK Flexibility Score: inf
ROOT
ATOM      1  C   UNL     1       2.409  -0.815  -0.210  1.00  0.00     0.095 C 
ATOM      2  N   UNL     1       1.319  -1.036   0.458  1.00  0.00    -0.164 NA
ATOM      3  N   UNL     1       0.648  -2.149   0.039  1.00  0.00    -0.190 N 
ATOM      4  C   UNL     1       1.013  -3.002  -0.985  1.00  0.00     0.178 A 
ATOM      5  C   UNL     1       2.210  -2.723  -1.675  1.00  0.00     0.053 C 
ATOM      6  C   UNL     1       2.933  -1.651  -1.326  1.00  0.00     0.035 C 
ATOM      7  N   UNL     1       0.114  -3.950  -1.116  1.00  0.00    -0.128 NA
ATOM      8  N   UNL     1      -0.863  -3.730  -0.173  1.00  0.00    -0.126 NA
ATOM      9  C   UNL     1      -0.534  -2.651   0.519  1.00  0.00     0.229 A 
ENDROOT
BRANCH   1  10
ATOM     10  C   UNL     1       3.198   0.346   0.155  1.00  0.00     0.040 A 
ATOM     11  C   UNL     1       5.800   2.856   0.054  1.00  0.00     0.173 C 
ATOM     12  N   UNL     1       4.683   1.974   0.289  1.00  0.00    -0.275 N 
ATOM     13  C   UNL     1       4.335   0.869  -0.437  1.00  0.00     0.118 A 
ATOM     14  N   UNL     1       3.857   2.216   1.318  1.00  0.00    -0.181 NA
ATOM     15  C   UNL     1       2.959   1.233   1.236  1.00  0.00     0.145 A 
ENDBRANCH   1  10
BRANCH   9  16
ATOM     16  C   UNL     1      -1.288  -2.003   1.627  1.00  0.00     0.333 C 
ATOM     17  F   UNL     1      -2.139  -2.916   2.195  1.00  0.00    -0.192 F 
ATOM     18  F   UNL     1      -0.437  -1.675   2.650  1.00  0.00    -0.192 F 
BRANCH  16  19
ATOM     19  C   UNL     1      -2.072  -0.792   1.135  1.00  0.00     0.030 A 
ATOM     20  C   UNL     1      -1.606   0.509   1.352  1.00  0.00     0.013 A 
ATOM     21  C   UNL     1      -3.276  -0.963   0.434  1.00  0.00     0.020 A 
ATOM     22  C   UNL     1      -2.328   1.609   0.873  1.00  0.00     0.029 A 
ATOM     23  C   UNL     1      -3.996   0.147  -0.044  1.00  0.00     0.001 A 
ATOM     24  C   UNL     1      -3.518   1.456   0.176  1.00  0.00     0.070 A 
ATOM     25  C   UNL     1      -5.198  -0.004  -0.747  1.00  0.00     0.012 A 
ATOM     26  N   UNL     1      -4.172   2.545  -0.265  1.00  0.00    -0.256 NA
ATOM     27  C   UNL     1      -5.878   1.120  -1.202  1.00  0.00     0.021 A 
ATOM     28  C   UNL     1      -5.328   2.360  -0.938  1.00  0.00     0.112 A 
ENDBRANCH  16  19
ENDBRANCH   9  16
TORSDOF 3
