REMARK SMILES CC(=O)OCC1=C(C(=O)O)N2C(=O)[C@@H](NC(=O)CSc3ccncc3)[C@H]2SC1
REMARK SMILES IDX 6 1 7 2 11 3 12 4 13 5 14 6 26 7 27 8 28 9 5 10 4 11 2 12
REMARK SMILES IDX 1 13 3 14 8 15 9 16 10 17 15 19 16 20 17 22 18 23 19 24
REMARK SMILES IDX 20 25 21 26 25 27 22 28 24 29 23 30
REMARK H PARENT 10 18 15 21
REMARK Flexibility Score: inf
ROOT
ATOM      1  C   UNL     1      -3.162  -0.240  -1.488  1.00  0.00     0.008 C 
ATOM      2  C   UNL     1      -2.714   1.029  -1.619  1.00  0.00     0.134 C 
ATOM      3  N   UNL     1      -1.481   1.305  -2.122  1.00  0.00    -0.289 N 
ATOM      4  C   UNL     1      -0.602   2.311  -1.917  1.00  0.00     0.253 C 
ATOM      5  O   UNL     1      -0.726   3.401  -1.411  1.00  0.00    -0.272 OA
ATOM      6  C   UNL     1       0.567   1.406  -2.443  1.00  0.00     0.205 C 
ATOM      7  C   UNL     1      -0.551   0.338  -2.653  1.00  0.00     0.181 C 
ATOM      8  S   UNL     1      -0.521  -1.118  -1.566  1.00  0.00    -0.129 SA
ATOM      9  C   UNL     1      -2.302  -1.451  -1.777  1.00  0.00     0.108 C 
ENDROOT
BRANCH   1  10
ATOM     10  C   UNL     1      -4.564  -0.583  -1.041  1.00  0.00     0.267 C 
BRANCH  10  11
ATOM     11  O   UNL     1      -4.515  -1.066   0.307  1.00  0.00    -0.461 OA
BRANCH  11  12
ATOM     12  C   UNL     1      -4.945  -2.337   0.516  1.00  0.00     0.302 C 
ATOM     13  C   UNL     1      -4.871  -2.670   1.975  1.00  0.00     0.139 C 
ATOM     14  O   UNL     1      -5.319  -3.114  -0.351  1.00  0.00    -0.253 OA
ENDBRANCH  11  12
ENDBRANCH  10  11
ENDBRANCH   1  10
BRANCH   2  15
ATOM     15  C   UNL     1      -3.547   2.189  -1.214  1.00  0.00     0.352 C 
ATOM     16  O   UNL     1      -4.029   3.014  -1.968  1.00  0.00    -0.245 OA
BRANCH  15  17
ATOM     17  O   UNL     1      -3.721   2.233   0.117  1.00  0.00    -0.477 OA
ATOM     18  H   UNL     1      -4.193   3.079   0.263  1.00  0.00     0.297 HD
ENDBRANCH  15  17
ENDBRANCH   2  15
BRANCH   6  19
ATOM     19  N   UNL     1       1.621   1.085  -1.443  1.00  0.00    -0.341 N 
ATOM     20  C   UNL     1       2.856   1.689  -1.450  1.00  0.00     0.231 C 
ATOM     21  H   UNL     1       1.472   0.324  -0.782  1.00  0.00     0.164 HD
ATOM     22  O   UNL     1       3.171   2.533  -2.286  1.00  0.00    -0.274 OA
BRANCH  20  23
ATOM     23  C   UNL     1       3.783   1.312  -0.305  1.00  0.00     0.174 C 
BRANCH  23  24
ATOM     24  S   UNL     1       3.699  -0.473   0.074  1.00  0.00    -0.116 SA
BRANCH  24  25
ATOM     25  C   UNL     1       4.761  -0.532   1.505  1.00  0.00     0.011 A 
ATOM     26  C   UNL     1       6.092  -0.125   1.445  1.00  0.00     0.035 A 
ATOM     27  C   UNL     1       4.257  -1.031   2.704  1.00  0.00     0.035 A 
ATOM     28  C   UNL     1       6.857  -0.214   2.596  1.00  0.00     0.112 A 
ATOM     29  C   UNL     1       5.101  -1.080   3.800  1.00  0.00     0.112 A 
ATOM     30  N   UNL     1       6.389  -0.676   3.774  1.00  0.00    -0.265 NA
ENDBRANCH  24  25
ENDBRANCH  23  24
ENDBRANCH  20  23
ENDBRANCH   6  19
TORSDOF 9
