REMARK SMILES CCCC(C(=O)c1ccc(C)cc1)N1CCCC1
REMARK SMILES IDX 4 1 3 2 2 3 1 4 5 5 6 6 7 7 8 8 13 9 9 10 12 11 10 12 11 13
REMARK SMILES IDX 14 14 15 15 18 16 16 17 17 18
REMARK H PARENT
REMARK Flexibility Score: inf
ROOT
ATOM      1  C   UNL     1      -0.946  -0.296   0.883  1.00  0.00     0.129 C 
ENDROOT
BRANCH   1   2
ATOM      2  C   UNL     1      -1.268   1.149   1.334  1.00  0.00     0.027 C 
BRANCH   2   3
ATOM      3  C   UNL     1      -1.854   2.160   0.342  1.00  0.00    -0.001 C 
ATOM      4  C   UNL     1      -0.909   2.598  -0.764  1.00  0.00     0.004 C 
ENDBRANCH   2   3
ENDBRANCH   1   2
BRANCH   1   5
ATOM      5  C   UNL     1       0.107  -0.385  -0.248  1.00  0.00     0.179 C 
ATOM      6  O   UNL     1      -0.159  -0.766  -1.390  1.00  0.00    -0.292 OA
BRANCH   5   7
ATOM      7  C   UNL     1       1.529   0.007   0.031  1.00  0.00     0.019 A 
ATOM      8  C   UNL     1       2.381   0.204  -1.067  1.00  0.00     0.012 A 
ATOM      9  C   UNL     1       2.047   0.163   1.321  1.00  0.00     0.012 A 
ATOM     10  C   UNL     1       3.718   0.563  -0.880  1.00  0.00     0.004 A 
ATOM     11  C   UNL     1       3.387   0.526   1.507  1.00  0.00     0.004 A 
ATOM     12  C   UNL     1       4.228   0.741   0.409  1.00  0.00    -0.051 A 
ATOM     13  C   UNL     1       5.673   1.090   0.615  1.00  0.00     0.044 C 
ENDBRANCH   5   7
ENDBRANCH   1   5
BRANCH   1  14
ATOM     14  N   UNL     1      -2.150  -1.132   0.660  1.00  0.00    -0.293 NA
ATOM     15  C   UNL     1      -3.028  -0.786  -0.458  1.00  0.00     0.085 C 
ATOM     16  C   UNL     1      -1.869  -2.567   0.573  1.00  0.00     0.085 C 
ATOM     17  C   UNL     1      -3.643  -2.104  -0.927  1.00  0.00     0.017 C 
ATOM     18  C   UNL     1      -3.194  -3.129   0.098  1.00  0.00     0.017 C 
ENDBRANCH   1  14
TORSDOF 5
