REMARK SMILES O=C(O)CNC(=O)C1C(=O)N(C2CCCCC2)C(=O)N(C2CCCCC2)C1=O
REMARK SMILES IDX 5 1 6 2 7 3 4 5 2 6 1 7 3 8 8 10 9 11 27 12 10 13 11 14
REMARK SMILES IDX 20 15 28 16 18 17 19 18 12 19 13 20 17 21 14 22 16 23 15 24
REMARK SMILES IDX 21 25 22 26 26 27 23 28 25 29 24 30
REMARK H PARENT 5 4 3 9
REMARK Flexibility Score: inf
ROOT
ATOM      1  N   UNL     1      -1.037   3.390   0.518  1.00  0.00    -0.344 N 
ATOM      2  C   UNL     1      -1.208   2.825  -0.723  1.00  0.00     0.242 C 
ATOM      3  O   UNL     1      -1.891   3.368  -1.593  1.00  0.00    -0.274 OA
ATOM      4  H   UNL     1      -0.222   3.113   1.066  1.00  0.00     0.164 HD
ENDROOT
BRANCH   1   5
ATOM      5  C   UNL     1      -1.594   4.700   0.816  1.00  0.00     0.238 C 
BRANCH   5   6
ATOM      6  C   UNL     1      -1.355   5.059   2.269  1.00  0.00     0.322 C 
ATOM      7  O   UNL     1      -0.633   4.465   3.056  1.00  0.00    -0.250 OA
BRANCH   6   8
ATOM      8  O   UNL     1      -2.012   6.172   2.649  1.00  0.00    -0.480 OA
ATOM      9  H   UNL     1      -1.767   6.287   3.591  1.00  0.00     0.296 HD
ENDBRANCH   6   8
ENDBRANCH   5   6
ENDBRANCH   1   5
BRANCH   2  10
ATOM     10  C   UNL     1      -0.569   1.477  -0.971  1.00  0.00     0.257 C 
ATOM     11  C   UNL     1       0.759   1.242  -0.333  1.00  0.00     0.253 C 
ATOM     12  C   UNL     1      -1.486   0.336  -0.669  1.00  0.00     0.253 C 
ATOM     13  O   UNL     1       1.354   2.124   0.284  1.00  0.00    -0.273 OA
ATOM     14  N   UNL     1       1.263  -0.041  -0.528  1.00  0.00    -0.260 N 
ATOM     15  N   UNL     1      -0.922  -0.906  -0.941  1.00  0.00    -0.260 N 
ATOM     16  O   UNL     1      -2.620   0.489  -0.226  1.00  0.00    -0.273 OA
ATOM     17  C   UNL     1       0.442  -1.149  -0.760  1.00  0.00     0.333 C 
ATOM     18  O   UNL     1       0.891  -2.298  -0.742  1.00  0.00    -0.247 OA
BRANCH  14  19
ATOM     19  C   UNL     1       2.666  -0.318  -0.146  1.00  0.00     0.095 C 
ATOM     20  C   UNL     1       3.688   0.593  -0.864  1.00  0.00     0.026 C 
ATOM     21  C   UNL     1       2.863  -0.329   1.378  1.00  0.00     0.026 C 
ATOM     22  C   UNL     1       4.959   0.835  -0.046  1.00  0.00     0.002 C 
ATOM     23  C   UNL     1       4.268  -0.793   1.768  1.00  0.00     0.002 C 
ATOM     24  C   UNL     1       5.350  -0.394   0.763  1.00  0.00     0.000 C 
ENDBRANCH  14  19
BRANCH  15  25
ATOM     25  C   UNL     1      -1.804  -2.091  -0.994  1.00  0.00     0.095 C 
ATOM     26  C   UNL     1      -2.244  -2.557   0.410  1.00  0.00     0.026 C 
ATOM     27  C   UNL     1      -3.002  -1.932  -1.943  1.00  0.00     0.026 C 
ATOM     28  C   UNL     1      -3.564  -3.333   0.403  1.00  0.00     0.002 C 
ATOM     29  C   UNL     1      -3.753  -3.255  -2.123  1.00  0.00     0.002 C 
ATOM     30  C   UNL     1      -3.739  -4.142  -0.875  1.00  0.00     0.000 C 
ENDBRANCH  15  25
ENDBRANCH   2  10
TORSDOF 6
