REMARK SMILES COc1cc(Cc2cnc(N)nc2N)cc(OC)c1OC
REMARK SMILES IDX 6 1 5 2 3 3 4 4 19 5 16 6 15 7 2 8 1 9 20 10 21 11 17 12
REMARK SMILES IDX 18 13 7 14 8 15 13 16 9 17 12 18 10 19 14 20 11 23
REMARK H PARENT 14 21 14 22 11 24 11 25
REMARK Flexibility Score: inf
ROOT
ATOM      1  C   UNL     1       1.266  -0.280   1.816  1.00  0.00     0.076 C 
ENDROOT
BRANCH   1   2
ATOM      2  C   UNL     1      -0.092  -0.007   1.201  1.00  0.00    -0.036 A 
ATOM      3  C   UNL     1      -1.953  -0.691  -0.218  1.00  0.00     0.164 A 
ATOM      4  C   UNL     1      -0.700  -0.943   0.344  1.00  0.00     0.054 A 
ATOM      5  C   UNL     1      -2.605   0.514   0.092  1.00  0.00     0.203 A 
ATOM      6  C   UNL     1      -2.037   1.445   0.977  1.00  0.00     0.164 A 
ATOM      7  C   UNL     1      -0.777   1.179   1.519  1.00  0.00     0.054 A 
BRANCH   3   8
ATOM      8  O   UNL     1      -2.616  -1.539  -1.068  1.00  0.00    -0.493 OA
ATOM      9  C   UNL     1      -1.961  -2.743  -1.442  1.00  0.00     0.278 C 
ENDBRANCH   3   8
BRANCH   5  10
ATOM     10  O   UNL     1      -3.863   0.754  -0.417  1.00  0.00    -0.490 OA
ATOM     11  C   UNL     1      -3.757   1.425  -1.671  1.00  0.00     0.278 C 
ENDBRANCH   5  10
BRANCH   6  12
ATOM     12  O   UNL     1      -2.770   2.576   1.223  1.00  0.00    -0.493 OA
ATOM     13  C   UNL     1      -2.346   3.414   2.289  1.00  0.00     0.278 C 
ENDBRANCH   6  12
ENDBRANCH   1   2
BRANCH   1  14
ATOM     14  C   UNL     1       2.329  -0.720   0.849  1.00  0.00     0.017 A 
ATOM     15  C   UNL     1       2.882  -1.983   0.944  1.00  0.00     0.123 A 
ATOM     16  C   UNL     1       2.840   0.065  -0.172  1.00  0.00     0.132 A 
ATOM     17  N   UNL     1       3.832  -2.453   0.119  1.00  0.00    -0.221 NA
ATOM     18  N   UNL     1       3.785  -0.380  -1.013  1.00  0.00    -0.196 NA
ATOM     19  C   UNL     1       4.230  -1.625  -0.846  1.00  0.00     0.221 A 
BRANCH  16  20
ATOM     20  N   UNL     1       2.381   1.367  -0.401  1.00  0.00    -0.383 N 
ATOM     21  H   UNL     1       1.395   1.344  -0.649  1.00  0.00     0.158 HD
ATOM     22  H   UNL     1       2.489   1.939   0.428  1.00  0.00     0.158 HD
ENDBRANCH  16  20
BRANCH  19  23
ATOM     23  N   UNL     1       5.211  -2.074  -1.707  1.00  0.00    -0.368 N 
ATOM     24  H   UNL     1       5.766  -2.783  -1.252  1.00  0.00     0.159 HD
ATOM     25  H   UNL     1       5.696  -1.278  -2.099  1.00  0.00     0.159 HD
ENDBRANCH  19  23
ENDBRANCH   1  14
TORSDOF 7
