REMARK SMILES CNC(=O)CN1CCC(Oc2cc3c(Nc4cccc(Cl)c4F)ncnc3cc2OC)CC1
REMARK SMILES IDX 10 1 9 2 6 3 7 4 33 5 8 6 32 7 5 8 3 9 1 10 2 11 4 13 11 14
REMARK SMILES IDX 29 15 12 16 28 17 13 18 27 19 14 20 26 21 24 22 25 23 30 24
REMARK SMILES IDX 31 25 15 26 16 28 17 29 22 30 18 31 20 32 23 33 19 34 21 35
REMARK H PARENT 2 12 15 27
REMARK Flexibility Score: inf
ROOT
ATOM      1  O   UNL     1       0.477  -1.316  -0.255  1.00  0.00    -0.486 OA
ENDROOT
BRANCH   1   2
ATOM      2  C   UNL     1       1.614  -0.463  -0.464  1.00  0.00     0.176 C 
ATOM      3  N   UNL     1       4.226   0.490   0.565  1.00  0.00    -0.294 NA
ATOM      4  C   UNL     1       4.132  -0.489  -0.536  1.00  0.00     0.089 C 
ATOM      5  C   UNL     1       3.010   1.315   0.633  1.00  0.00     0.089 C 
ATOM      6  C   UNL     1       2.863  -1.339  -0.522  1.00  0.00     0.061 C 
ATOM      7  C   UNL     1       1.715   0.511   0.710  1.00  0.00     0.061 C 
BRANCH   3   8
ATOM      8  C   UNL     1       4.514  -0.160   1.872  1.00  0.00     0.184 C 
BRANCH   8   9
ATOM      9  C   UNL     1       5.971  -0.637   1.960  1.00  0.00     0.233 C 
ATOM     10  C   UNL     1       8.268  -0.120   1.192  1.00  0.00     0.142 C 
ATOM     11  N   UNL     1       6.850   0.109   1.206  1.00  0.00    -0.358 N 
ATOM     12  H   UNL     1       6.434   0.851   0.650  1.00  0.00     0.163 HD
ATOM     13  O   UNL     1       6.315  -1.566   2.686  1.00  0.00    -0.274 OA
ENDBRANCH   8   9
ENDBRANCH   3   8
ENDBRANCH   1   2
BRANCH   1  14
ATOM     14  C   UNL     1      -0.584  -1.007  -1.065  1.00  0.00     0.162 A 
ATOM     15  C   UNL     1      -0.575  -1.211  -2.447  1.00  0.00     0.162 A 
ATOM     16  C   UNL     1      -1.738  -0.558  -0.427  1.00  0.00     0.064 A 
ATOM     17  C   UNL     1      -1.729  -0.903  -3.175  1.00  0.00     0.079 A 
ATOM     18  C   UNL     1      -2.899  -0.247  -1.174  1.00  0.00     0.047 A 
ATOM     19  C   UNL     1      -2.885  -0.428  -2.563  1.00  0.00     0.080 A 
ATOM     20  C   UNL     1      -4.109   0.233  -0.632  1.00  0.00     0.141 A 
ATOM     21  N   UNL     1      -3.945  -0.169  -3.333  1.00  0.00    -0.236 NA
ATOM     22  N   UNL     1      -5.184   0.478  -1.402  1.00  0.00    -0.219 NA
ATOM     23  C   UNL     1      -5.047   0.267  -2.714  1.00  0.00     0.224 A 
BRANCH  15  24
ATOM     24  O   UNL     1       0.581  -1.707  -2.990  1.00  0.00    -0.493 OA
ATOM     25  C   UNL     1       0.538  -2.130  -4.346  1.00  0.00     0.278 C 
ENDBRANCH  15  24
BRANCH  20  26
ATOM     26  N   UNL     1      -4.190   0.469   0.765  1.00  0.00    -0.337 N 
ATOM     27  H   UNL     1      -3.412   1.055   1.061  1.00  0.00     0.168 HD
BRANCH  26  28
ATOM     28  C   UNL     1      -5.340   0.756   1.541  1.00  0.00     0.077 A 
ATOM     29  C   UNL     1      -6.601   0.217   1.259  1.00  0.00     0.029 A 
ATOM     30  C   UNL     1      -5.202   1.529   2.705  1.00  0.00     0.165 A 
ATOM     31  C   UNL     1      -7.698   0.481   2.087  1.00  0.00     0.004 A 
ATOM     32  C   UNL     1      -6.290   1.795   3.535  1.00  0.00     0.078 A 
ATOM     33  F   UNL     1      -3.987   2.023   3.003  1.00  0.00    -0.203 F 
ATOM     34  C   UNL     1      -7.544   1.274   3.224  1.00  0.00     0.024 A 
ATOM     35  Cl  UNL     1      -6.101   2.760   4.949  1.00  0.00    -0.081 Cl
ENDBRANCH  26  28
ENDBRANCH  20  26
ENDBRANCH   1  14
TORSDOF 7
