REMARK SMILES CC(C)NNC(=O)c1ccncc1
REMARK SMILES IDX 5 1 6 2 7 3 4 5 2 7 1 8 3 9 8 10 9 11 13 12 10 13 12 14
REMARK SMILES IDX 11 15
REMARK H PARENT 5 4 4 6
REMARK Flexibility Score: inf
ROOT
ATOM      1  N   UNL     1      -0.342   0.326   0.619  1.00  0.00    -0.287 N 
ATOM      2  C   UNL     1       0.567  -0.706   0.416  1.00  0.00     0.265 C 
ATOM      3  O   UNL     1       0.230  -1.877   0.254  1.00  0.00    -0.268 OA
ATOM      4  H   UNL     1      -0.028   1.203   1.025  1.00  0.00     0.185 HD
ENDROOT
BRANCH   1   5
ATOM      5  N   UNL     1      -1.710  -0.002   0.769  1.00  0.00    -0.232 NA
ATOM      6  H   UNL     1      -1.778  -1.030   0.755  1.00  0.00     0.148 HD
BRANCH   5   7
ATOM      7  C   UNL     1      -2.521   0.543  -0.331  1.00  0.00     0.068 C 
ATOM      8  C   UNL     1      -2.260  -0.178  -1.655  1.00  0.00     0.026 C 
ATOM      9  C   UNL     1      -3.993   0.407   0.058  1.00  0.00     0.026 C 
ENDBRANCH   5   7
ENDBRANCH   1   5
BRANCH   2  10
ATOM     10  C   UNL     1       2.006  -0.335   0.434  1.00  0.00     0.044 A 
ATOM     11  C   UNL     1       2.936  -1.319   0.770  1.00  0.00     0.034 A 
ATOM     12  C   UNL     1       2.447   0.946   0.098  1.00  0.00     0.034 A 
ATOM     13  C   UNL     1       4.274  -0.972   0.781  1.00  0.00     0.112 A 
ATOM     14  C   UNL     1       3.808   1.191   0.137  1.00  0.00     0.112 A 
ATOM     15  N   UNL     1       4.727   0.264   0.479  1.00  0.00    -0.265 NA
ENDBRANCH   2  10
TORSDOF 3
