REMARK SMILES O=c1oc2c(O)c(O)cc3c(=O)oc4c(O)c(O)cc1c4c23
REMARK SMILES IDX 17 1 15 2 14 3 21 4 20 5 19 6 2 7 1 8 3 9 4 10 22 11 10 12
REMARK SMILES IDX 9 13 7 14 5 15 11 16 12 17 13 18 18 19 16 21 6 23 8 25
REMARK H PARENT 18 20 16 22 6 24 8 26
REMARK Flexibility Score: inf
ROOT
ATOM      1  C   UNL     1      -3.470   0.199  -0.392  1.00  0.00     0.162 A 
ATOM      2  C   UNL     1      -2.908  -0.887   0.273  1.00  0.00     0.202 A 
ATOM      3  C   UNL     1      -1.530  -0.952   0.421  1.00  0.00     0.185 A 
ATOM      4  C   UNL     1      -0.710   0.050  -0.086  1.00  0.00     0.048 A 
ATOM      5  C   UNL     1      -1.281   1.138  -0.753  1.00  0.00     0.076 A 
ATOM      6  C   UNL     1      -2.671   1.215  -0.909  1.00  0.00     0.066 A 
ATOM      7  C   UNL     1      -0.406   2.209  -1.295  1.00  0.00     0.344 C 
ATOM      8  O   UNL     1      -0.861   3.179  -1.885  1.00  0.00    -0.246 OA
ATOM      9  O   UNL     1       0.970   2.056  -1.097  1.00  0.00    -0.418 OA
ATOM     10  C   UNL     1       1.530   0.952  -0.421  1.00  0.00     0.185 A 
ATOM     11  C   UNL     1       0.710  -0.050   0.086  1.00  0.00     0.048 A 
ATOM     12  C   UNL     1       1.281  -1.138   0.753  1.00  0.00     0.076 A 
ATOM     13  C   UNL     1       2.671  -1.215   0.909  1.00  0.00     0.066 A 
ATOM     14  C   UNL     1       3.470  -0.199   0.392  1.00  0.00     0.162 A 
ATOM     15  C   UNL     1       2.908   0.887  -0.273  1.00  0.00     0.202 A 
ATOM     16  C   UNL     1       0.406  -2.209   1.295  1.00  0.00     0.344 C 
ATOM     17  O   UNL     1       0.861  -3.179   1.885  1.00  0.00    -0.246 OA
ATOM     18  O   UNL     1      -0.970  -2.056   1.097  1.00  0.00    -0.418 OA
ENDROOT
BRANCH   1  19
ATOM     19  O   UNL     1      -4.823   0.279  -0.546  1.00  0.00    -0.504 OA
ATOM     20  H   UNL     1      -5.182  -0.524  -0.117  1.00  0.00     0.293 HD
ENDBRANCH   1  19
BRANCH   2  21
ATOM     21  O   UNL     1      -3.739  -1.855   0.760  1.00  0.00    -0.502 OA
ATOM     22  H   UNL     1      -3.176  -2.529   1.190  1.00  0.00     0.293 HD
ENDBRANCH   2  21
BRANCH  15  23
ATOM     23  O   UNL     1       3.739   1.855  -0.760  1.00  0.00    -0.502 OA
ATOM     24  H   UNL     1       3.176   2.529  -1.190  1.00  0.00     0.293 HD
ENDBRANCH  15  23
BRANCH  14  25
ATOM     25  O   UNL     1       4.823  -0.279   0.546  1.00  0.00    -0.504 OA
ATOM     26  H   UNL     1       5.182   0.524   0.117  1.00  0.00     0.293 HD
ENDBRANCH  14  25
TORSDOF 4
