REMARK SMILES CCn1c(=O)c2c(nc(/C=C/c3ccc(OC)c(OC)c3)n2C)n(CC)c1=O
REMARK SMILES IDX 10 1 11 2 9 3 3 4 4 5 27 6 5 7 6 8 24 9 28 10 7 11 22 12
REMARK SMILES IDX 8 13 23 14 2 15 1 16 25 17 26 18 12 19 13 20 21 21 14 22
REMARK SMILES IDX 18 23 15 24 19 25 20 26 16 27 17 28
REMARK H PARENT
REMARK Flexibility Score: inf
ROOT
ATOM      1  C   UNL     1      -0.896  -0.373  -0.764  1.00  0.00     0.048 C 
ATOM      2  C   UNL     1      -1.589   0.547  -0.074  1.00  0.00     0.012 C 
ENDROOT
BRANCH   1   3
ATOM      3  C   UNL     1       0.520  -0.370  -0.796  1.00  0.00     0.135 A 
ATOM      4  N   UNL     1       4.927   0.421  -1.115  1.00  0.00    -0.259 N 
ATOM      5  C   UNL     1       3.758   1.136  -1.399  1.00  0.00     0.282 C 
ATOM      6  C   UNL     1       4.978  -0.863  -0.538  1.00  0.00     0.332 C 
ATOM      7  O   UNL     1       3.744   2.290  -1.819  1.00  0.00    -0.267 OA
ATOM      8  C   UNL     1       2.573   0.396  -1.131  1.00  0.00     0.152 A 
ATOM      9  N   UNL     1       3.762  -1.516  -0.325  1.00  0.00    -0.276 N 
ATOM     10  O   UNL     1       6.053  -1.386  -0.227  1.00  0.00    -0.247 OA
ATOM     11  C   UNL     1       2.588  -0.862  -0.615  1.00  0.00     0.168 A 
ATOM     12  N   UNL     1       1.246   0.699  -1.298  1.00  0.00    -0.322 N 
ATOM     13  N   UNL     1       1.333  -1.346  -0.427  1.00  0.00    -0.211 NA
ATOM     14  C   UNL     1       0.743   1.899  -1.927  1.00  0.00     0.152 C 
BRANCH   4  15
ATOM     15  C   UNL     1       6.196   1.106  -1.338  1.00  0.00     0.127 C 
ATOM     16  C   UNL     1       6.634   1.895  -0.112  1.00  0.00     0.028 C 
ENDBRANCH   4  15
BRANCH   9  17
ATOM     17  C   UNL     1       3.749  -2.843   0.282  1.00  0.00     0.126 C 
ATOM     18  C   UNL     1       3.701  -2.772   1.801  1.00  0.00     0.028 C 
ENDBRANCH   9  17
ENDBRANCH   1   3
BRANCH   2  19
ATOM     19  C   UNL     1      -3.055   0.552   0.023  1.00  0.00    -0.022 A 
ATOM     20  C   UNL     1      -3.731   1.773  -0.043  1.00  0.00     0.012 A 
ATOM     21  C   UNL     1      -3.791  -0.623   0.233  1.00  0.00     0.058 A 
ATOM     22  C   UNL     1      -5.124   1.822   0.066  1.00  0.00     0.051 A 
ATOM     23  C   UNL     1      -5.187  -0.585   0.345  1.00  0.00     0.161 A 
ATOM     24  C   UNL     1      -5.861   0.649   0.256  1.00  0.00     0.160 A 
BRANCH  23  25
ATOM     25  O   UNL     1      -5.979  -1.690   0.543  1.00  0.00    -0.493 OA
ATOM     26  C   UNL     1      -5.338  -2.951   0.664  1.00  0.00     0.278 C 
ENDBRANCH  23  25
BRANCH  24  27
ATOM     27  O   UNL     1      -7.228   0.601   0.372  1.00  0.00    -0.493 OA
ATOM     28  C   UNL     1      -7.941   1.827   0.292  1.00  0.00     0.278 C 
ENDBRANCH  24  27
ENDBRANCH   2  19
TORSDOF 6
