REMARK SMILES CCOC(=O)C1=C[C@]2(CC)CCCN3CCc4c(n1c1ccccc41)[C@@H]32
REMARK SMILES IDX 4 1 5 2 3 3 2 4 1 5 6 6 7 7 19 8 8 9 18 10 20 11 11 12 26 13
REMARK SMILES IDX 17 14 21 15 25 16 12 17 14 18 16 19 22 20 24 21 13 22 15 23
REMARK SMILES IDX 23 24 9 25 10 26
REMARK H PARENT
REMARK Flexibility Score: inf
ROOT
ATOM      1  C   UNL     1       2.313  -0.868  -1.262  1.00  0.00     0.354 C 
ATOM      2  O   UNL     1       2.446  -1.265  -2.408  1.00  0.00    -0.244 OA
ENDROOT
BRANCH   1   3
ATOM      3  O   UNL     1       3.283  -0.783  -0.315  1.00  0.00    -0.461 OA
BRANCH   3   4
ATOM      4  C   UNL     1       4.594  -1.188  -0.731  1.00  0.00     0.230 C 
ATOM      5  C   UNL     1       4.763  -2.684  -0.541  1.00  0.00     0.049 C 
ENDBRANCH   3   4
ENDBRANCH   1   3
BRANCH   1   6
ATOM      6  C   UNL     1       1.025  -0.486  -0.652  1.00  0.00     0.129 C 
ATOM      7  C   UNL     1       0.153  -1.506  -0.490  1.00  0.00     0.016 C 
ATOM      8  N   UNL     1       0.699   0.819  -0.281  1.00  0.00    -0.306 N 
ATOM      9  C   UNL     1      -1.224  -1.364   0.170  1.00  0.00     0.012 C 
ATOM     10  C   UNL     1      -0.492   1.105   0.337  1.00  0.00     0.046 A 
ATOM     11  C   UNL     1       1.363   2.038  -0.479  1.00  0.00     0.054 A 
ATOM     12  C   UNL     1      -2.320  -1.625  -0.889  1.00  0.00     0.014 C 
ATOM     13  C   UNL     1      -1.471   0.073   0.784  1.00  0.00     0.114 C 
ATOM     14  C   UNL     1      -0.680   2.462   0.428  1.00  0.00    -0.016 A 
ATOM     15  C   UNL     1       2.616   2.344  -1.045  1.00  0.00     0.027 A 
ATOM     16  C   UNL     1       0.506   3.069  -0.044  1.00  0.00     0.004 A 
ATOM     17  C   UNL     1      -3.741  -1.445  -0.330  1.00  0.00     0.017 C 
ATOM     18  N   UNL     1      -2.812   0.656   0.517  1.00  0.00    -0.294 NA
ATOM     19  C   UNL     1      -1.984   3.029   0.887  1.00  0.00     0.053 C 
ATOM     20  C   UNL     1       3.004   3.684  -1.148  1.00  0.00     0.002 A 
ATOM     21  C   UNL     1       0.918   4.412  -0.173  1.00  0.00     0.010 A 
ATOM     22  C   UNL     1      -3.872  -0.318   0.706  1.00  0.00     0.085 C 
ATOM     23  C   UNL     1      -2.993   1.907   1.291  1.00  0.00     0.090 C 
ATOM     24  C   UNL     1       2.169   4.706  -0.718  1.00  0.00     0.001 A 
BRANCH   9  25
ATOM     25  C   UNL     1      -1.300  -2.405   1.340  1.00  0.00     0.010 C 
ATOM     26  C   UNL     1      -1.283  -3.881   0.952  1.00  0.00     0.005 C 
ENDBRANCH   9  25
ENDBRANCH   1   6
TORSDOF 4
