REMARK SMILES O=C1Cc2cc(CCN3CCN(c4nsc5ccccc45)CC3)c(Cl)cc2N1
REMARK SMILES IDX 8 1 7 2 6 3 1 4 2 5 3 6 28 7 4 8 27 9 5 11 26 12 24 13 25 14
REMARK SMILES IDX 9 15 10 16 23 17 11 18 22 19 12 20 13 21 14 22 21 23 15 24
REMARK SMILES IDX 16 25 20 26 17 27 19 28 18 29
REMARK H PARENT 28 10
REMARK Flexibility Score: inf
ROOT
ATOM      1  C   UNL     1       1.115  -0.619   0.676  1.00  0.00     0.089 C 
ENDROOT
BRANCH   1   2
ATOM      2  C   UNL     1       2.074   0.215   1.542  1.00  0.00     0.052 C 
BRANCH   2   3
ATOM      3  C   UNL     1       3.357   0.545   0.804  1.00  0.00    -0.028 A 
ATOM      4  O   UNL     1       8.968  -0.035  -0.932  1.00  0.00    -0.274 OA
ATOM      5  C   UNL     1       7.802   0.145  -0.622  1.00  0.00     0.228 C 
ATOM      6  C   UNL     1       6.973  -0.696   0.356  1.00  0.00     0.138 C 
ATOM      7  N   UNL     1       6.982   1.162  -1.098  1.00  0.00    -0.325 N 
ATOM      8  C   UNL     1       5.647   0.005   0.326  1.00  0.00    -0.015 A 
ATOM      9  C   UNL     1       5.714   1.087  -0.545  1.00  0.00     0.046 A 
ATOM     10  H   UNL     1       7.302   1.854  -1.760  1.00  0.00     0.169 HD
ATOM     11  C   UNL     1       4.479  -0.283   1.008  1.00  0.00     0.011 A 
ATOM     12  C   UNL     1       4.642   1.918  -0.779  1.00  0.00     0.047 A 
ATOM     13  C   UNL     1       3.453   1.638  -0.096  1.00  0.00     0.046 A 
ATOM     14  Cl  UNL     1       2.105   2.681  -0.400  1.00  0.00    -0.084 Cl
ENDBRANCH   2   3
ENDBRANCH   1   2
BRANCH   1  15
ATOM     15  N   UNL     1      -0.123  -0.971   1.390  1.00  0.00    -0.299 NA
ATOM     16  C   UNL     1      -1.064   0.166   1.517  1.00  0.00     0.106 C 
ATOM     17  C   UNL     1      -0.786  -2.125   0.734  1.00  0.00     0.106 C 
ATOM     18  C   UNL     1      -2.180   0.238   0.448  1.00  0.00     0.133 C 
ATOM     19  C   UNL     1      -2.308  -2.186   0.979  1.00  0.00     0.133 C 
ATOM     20  N   UNL     1      -2.967  -1.009   0.377  1.00  0.00    -0.353 N 
BRANCH  20  21
ATOM     21  C   UNL     1      -4.338  -0.947   0.439  1.00  0.00     0.150 A 
ATOM     22  N   UNL     1      -5.054  -1.711   1.264  1.00  0.00    -0.174 NA
ATOM     23  C   UNL     1      -5.125  -0.073  -0.429  1.00  0.00     0.037 A 
ATOM     24  S   UNL     1      -6.652  -1.355   1.120  1.00  0.00    -0.034 S 
ATOM     25  C   UNL     1      -6.484  -0.193  -0.126  1.00  0.00     0.057 A 
ATOM     26  C   UNL     1      -4.774   0.813  -1.483  1.00  0.00     0.013 A 
ATOM     27  C   UNL     1      -7.480   0.546  -0.789  1.00  0.00     0.021 A 
ATOM     28  C   UNL     1      -5.755   1.553  -2.153  1.00  0.00     0.001 A 
ATOM     29  C   UNL     1      -7.093   1.424  -1.804  1.00  0.00     0.002 A 
ENDBRANCH  20  21
ENDBRANCH   1  15
TORSDOF 4
