REMARK SMILES CCC1NC(=O)c2cc(S(N)(=O)=O)c(Cl)cc2N1
REMARK SMILES IDX 3 1 4 2 5 3 6 4 7 5 8 6 9 7 14 8 15 9 16 10 17 11 18 12 2 15
REMARK SMILES IDX 1 16 10 17 12 18 13 19 11 20
REMARK H PARENT 4 13 18 14 11 21 11 22
REMARK Flexibility Score: inf
ROOT
ATOM      1  C   UNL     1      -2.387   0.017  -0.218  1.00  0.00     0.175 C 
ATOM      2  N   UNL     1      -1.919  -1.202  -0.816  1.00  0.00    -0.332 N 
ATOM      3  C   UNL     1      -0.631  -1.318  -1.264  1.00  0.00     0.255 C 
ATOM      4  O   UNL     1      -0.319  -2.129  -2.126  1.00  0.00    -0.269 OA
ATOM      5  C   UNL     1       0.359  -0.424  -0.632  1.00  0.00     0.064 A 
ATOM      6  C   UNL     1       1.703  -0.463  -1.013  1.00  0.00     0.039 A 
ATOM      7  C   UNL     1       2.631   0.347  -0.347  1.00  0.00     0.101 A 
ATOM      8  C   UNL     1       2.213   1.175   0.699  1.00  0.00     0.063 A 
ATOM      9  Cl  UNL     1       3.274   2.184   1.616  1.00  0.00    -0.083 Cl
ATOM     10  C   UNL     1       0.858   1.200   1.065  1.00  0.00     0.048 A 
ATOM     11  C   UNL     1      -0.090   0.433   0.380  1.00  0.00     0.050 A 
ATOM     12  N   UNL     1      -1.430   0.417   0.804  1.00  0.00    -0.365 N 
ATOM     13  H   UNL     1      -2.569  -1.746  -1.366  1.00  0.00     0.165 HD
ATOM     14  H   UNL     1      -1.691   1.280   1.272  1.00  0.00     0.162 HD
ENDROOT
BRANCH   1  15
ATOM     15  C   UNL     1      -3.773  -0.192   0.403  1.00  0.00     0.044 C 
ATOM     16  C   UNL     1      -4.421   1.106   0.867  1.00  0.00     0.008 C 
ENDBRANCH   1  15
BRANCH   7  17
ATOM     17  S   UNL     1       4.314   0.293  -0.871  1.00  0.00     0.239 S 
ATOM     18  O   UNL     1       4.788   1.637  -1.096  1.00  0.00    -0.207 OA
ATOM     19  O   UNL     1       4.463  -0.740  -1.871  1.00  0.00    -0.207 OA
BRANCH  17  20
ATOM     20  N   UNL     1       5.117  -0.302   0.477  1.00  0.00    -0.225 NA
ATOM     21  H   UNL     1       5.759   0.404   0.840  1.00  0.00     0.137 HD
ATOM     22  H   UNL     1       5.565  -1.190   0.249  1.00  0.00     0.137 HD
ENDBRANCH  17  20
ENDBRANCH   7  17
TORSDOF 3
