REMARK SMILES Cc1cc2c(s1)Nc1ccccc1N=C2N1CCN(C)CC1
REMARK SMILES IDX 1 1 2 2 3 3 4 4 5 5 6 6 7 7 8 8 9 9 10 10 11 11 12 12 13 13
REMARK SMILES IDX 14 14 15 15 16 16 17 17 18 18 19 19 20 20 21 21 22 22
REMARK H PARENT 7 23
REMARK Flexibility Score: inf
ROOT
ATOM      1  C   UNL     1      -2.317   4.465   0.941  1.00  0.00     0.056 C 
ATOM      2  C   UNL     1      -2.111   3.055   0.508  1.00  0.00     0.004 A 
ATOM      3  C   UNL     1      -1.059   2.214   0.788  1.00  0.00     0.029 A 
ATOM      4  C   UNL     1      -1.187   0.909   0.182  1.00  0.00     0.052 A 
ATOM      5  C   UNL     1      -2.396   0.801  -0.474  1.00  0.00     0.104 A 
ATOM      6  S   UNL     1      -3.266   2.282  -0.476  1.00  0.00    -0.123 S 
ATOM      7  N   UNL     1      -2.946  -0.274  -1.088  1.00  0.00    -0.345 N 
ATOM      8  C   UNL     1      -2.820  -1.580  -0.555  1.00  0.00     0.065 A 
ATOM      9  C   UNL     1      -3.929  -2.443  -0.705  1.00  0.00     0.028 A 
ATOM     10  C   UNL     1      -3.926  -3.736  -0.182  1.00  0.00     0.002 A 
ATOM     11  C   UNL     1      -2.805  -4.199   0.490  1.00  0.00     0.002 A 
ATOM     12  C   UNL     1      -1.692  -3.369   0.620  1.00  0.00     0.030 A 
ATOM     13  C   UNL     1      -1.670  -2.060   0.104  1.00  0.00     0.089 A 
ATOM     14  N   UNL     1      -0.426  -1.423   0.215  1.00  0.00    -0.229 NA
ATOM     15  C   UNL     1      -0.184  -0.150   0.234  1.00  0.00     0.139 C 
ATOM     16  N   UNL     1       1.120   0.328   0.344  1.00  0.00    -0.353 N 
ATOM     17  C   UNL     1       1.634   1.290  -0.659  1.00  0.00     0.133 C 
ATOM     18  C   UNL     1       2.956   0.806  -1.292  1.00  0.00     0.105 C 
ATOM     19  N   UNL     1       4.044   0.623  -0.306  1.00  0.00    -0.303 NA
ATOM     20  C   UNL     1       5.088  -0.239  -0.854  1.00  0.00     0.105 C 
ATOM     21  C   UNL     1       3.519   0.103   0.977  1.00  0.00     0.105 C 
ATOM     22  C   UNL     1       2.145  -0.590   0.880  1.00  0.00     0.133 C 
ATOM     23  H   UNL     1      -3.865  -0.110  -1.485  1.00  0.00     0.167 HD
ENDROOT
TORSDOF 0
