REMARK SMILES Sc1ncnc2nc[nH]c12
REMARK SMILES IDX 2 1 3 2 4 3 5 4 6 5 7 6 8 7 9 8 10 9 1 11
REMARK H PARENT 9 10 1 12
REMARK Flexibility Score: inf
ROOT
ATOM      1  C   UNL     1      -1.171  -0.249   0.382  1.00  0.00     0.122 A 
ATOM      2  N   UNL     1      -1.582   0.949   0.837  1.00  0.00    -0.228 NA
ATOM      3  C   UNL     1      -0.713   1.978   0.765  1.00  0.00     0.225 A 
ATOM      4  N   UNL     1       0.538   1.972   0.289  1.00  0.00    -0.215 NA
ATOM      5  C   UNL     1       0.920   0.763  -0.158  1.00  0.00     0.181 A 
ATOM      6  N   UNL     1       2.141   0.459  -0.698  1.00  0.00    -0.217 NA
ATOM      7  C   UNL     1       2.075  -0.821  -0.993  1.00  0.00     0.199 A 
ATOM      8  N   UNL     1       0.859  -1.355  -0.664  1.00  0.00    -0.341 N 
ATOM      9  C   UNL     1       0.102  -0.351  -0.127  1.00  0.00     0.117 A 
ATOM     10  H   UNL     1       0.569  -2.315  -0.795  1.00  0.00     0.168 HD
ENDROOT
BRANCH   1  11
ATOM     11  S   UNL     1      -2.263  -1.623   0.453  1.00  0.00    -0.121 SA
ATOM     12  H   UNL     1      -3.267  -0.930   1.007  1.00  0.00     0.110 HD
ENDBRANCH   1  11
TORSDOF 1
