REMARK SMILES O=S(=O)(O)Oc1ccc(C(c2ccc(OS(=O)(=O)O)cc2)c2ccccn2)cc1
REMARK SMILES IDX 10 1 9 2 6 3 7 4 29 5 8 6 28 7 5 8 2 9 1 10 3 11 4 12 11 14
REMARK SMILES IDX 12 15 21 16 13 17 20 18 14 19 15 20 16 21 17 22 18 23 19 24
REMARK SMILES IDX 22 26 23 27 27 28 24 29 26 30 25 31
REMARK H PARENT 4 13 19 25
REMARK Flexibility Score: inf
ROOT
ATOM      1  C   UNL     1       0.161  -0.287   1.425  1.00  0.00     0.098 C 
ENDROOT
BRANCH   1   2
ATOM      2  C   UNL     1      -1.267   0.007   0.936  1.00  0.00    -0.034 A 
ATOM      3  C   UNL     1      -3.877   0.670   0.065  1.00  0.00     0.145 A 
ATOM      4  C   UNL     1      -3.348  -0.593  -0.194  1.00  0.00     0.048 A 
ATOM      5  C   UNL     1      -3.110   1.599   0.768  1.00  0.00     0.048 A 
ATOM      6  C   UNL     1      -2.055  -0.920   0.238  1.00  0.00     0.008 A 
ATOM      7  C   UNL     1      -1.822   1.273   1.200  1.00  0.00     0.008 A 
BRANCH   3   8
ATOM      8  O   UNL     1      -5.122   1.107  -0.306  1.00  0.00    -0.362 OA
BRANCH   8   9
ATOM      9  S   UNL     1      -6.120   0.228  -1.241  1.00  0.00     0.446 S 
ATOM     10  O   UNL     1      -5.530   0.091  -2.557  1.00  0.00    -0.158 OA
ATOM     11  O   UNL     1      -6.603  -0.915  -0.499  1.00  0.00    -0.158 OA
BRANCH   9  12
ATOM     12  O   UNL     1      -7.366   1.229  -1.453  1.00  0.00    -0.254 OA
ATOM     13  H   UNL     1      -7.158   1.798  -2.222  1.00  0.00     0.237 HD
ENDBRANCH   9  12
ENDBRANCH   8   9
ENDBRANCH   3   8
ENDBRANCH   1   2
BRANCH   1  14
ATOM     14  C   UNL     1       1.243   0.586   0.769  1.00  0.00    -0.034 A 
ATOM     15  C   UNL     1       1.170   1.000  -0.572  1.00  0.00     0.008 A 
ATOM     16  C   UNL     1       2.368   0.961   1.523  1.00  0.00     0.008 A 
ATOM     17  C   UNL     1       2.188   1.773  -1.141  1.00  0.00     0.048 A 
ATOM     18  C   UNL     1       3.382   1.734   0.955  1.00  0.00     0.048 A 
ATOM     19  C   UNL     1       3.301   2.127  -0.382  1.00  0.00     0.145 A 
BRANCH  19  20
ATOM     20  O   UNL     1       4.340   2.891  -0.844  1.00  0.00    -0.362 OA
BRANCH  20  21
ATOM     21  S   UNL     1       4.913   2.749  -2.363  1.00  0.00     0.446 S 
ATOM     22  O   UNL     1       6.300   3.166  -2.345  1.00  0.00    -0.158 OA
ATOM     23  O   UNL     1       3.968   3.322  -3.296  1.00  0.00    -0.158 OA
BRANCH  21  24
ATOM     24  O   UNL     1       4.967   1.155  -2.620  1.00  0.00    -0.254 OA
ATOM     25  H   UNL     1       5.773   0.813  -2.184  1.00  0.00     0.237 HD
ENDBRANCH  21  24
ENDBRANCH  20  21
ENDBRANCH  19  20
ENDBRANCH   1  14
BRANCH   1  26
ATOM     26  C   UNL     1       0.562  -1.766   1.477  1.00  0.00     0.052 A 
ATOM     27  C   UNL     1       1.023  -2.445   0.346  1.00  0.00     0.025 A 
ATOM     28  N   UNL     1       0.445  -2.387   2.682  1.00  0.00    -0.260 NA
ATOM     29  C   UNL     1       1.367  -3.790   0.452  1.00  0.00     0.003 A 
ATOM     30  C   UNL     1       0.786  -3.692   2.755  1.00  0.00     0.111 A 
ATOM     31  C   UNL     1       1.248  -4.429   1.679  1.00  0.00     0.020 A 
ENDBRANCH   1  26
TORSDOF 9
