REMARK SMILES CC(C)n1c(/C=C/C(O)CC(O)CC(=O)O)c(-c2ccc(F)cc2)c2ccccc21
REMARK SMILES IDX 10 1 8 2 7 3 6 4 5 5 4 6 30 7 17 8 25 9 29 10 26 11 28 12
REMARK SMILES IDX 27 13 2 14 1 15 3 16 18 17 19 18 24 19 20 20 23 21 21 22
REMARK SMILES IDX 22 23 9 24 11 26 12 27 13 29 14 30 15 31 16 32
REMARK H PARENT 9 25 12 28 16 33
REMARK Flexibility Score: inf
ROOT
ATOM      1  C   UNL     1       3.351   0.284  -0.048  1.00  0.00     0.068 C 
ENDROOT
BRANCH   1   2
ATOM      2  C   UNL     1       2.265   0.650   0.974  1.00  0.00     0.140 C 
BRANCH   2   3
ATOM      3  C   UNL     1       0.893   0.468   0.388  1.00  0.00     0.006 C 
ATOM      4  C   UNL     1       0.030  -0.518   0.683  1.00  0.00     0.025 C 
BRANCH   4   5
ATOM      5  C   UNL     1      -1.247  -0.574   0.060  1.00  0.00     0.050 A 
ATOM      6  N   UNL     1      -1.647  -1.720  -0.621  1.00  0.00    -0.338 N 
ATOM      7  C   UNL     1      -2.942  -1.550  -1.103  1.00  0.00     0.049 A 
ATOM      8  C   UNL     1      -2.283   0.345  -0.028  1.00  0.00     0.015 A 
ATOM      9  C   UNL     1      -3.350  -0.260  -0.751  1.00  0.00     0.008 A 
ATOM     10  C   UNL     1      -3.800  -2.407  -1.820  1.00  0.00     0.027 A 
ATOM     11  C   UNL     1      -4.641   0.179  -1.122  1.00  0.00     0.011 A 
ATOM     12  C   UNL     1      -5.071  -1.947  -2.179  1.00  0.00     0.002 A 
ATOM     13  C   UNL     1      -5.490  -0.669  -1.836  1.00  0.00     0.001 A 
BRANCH   6  14
ATOM     14  C   UNL     1      -0.815  -2.914  -0.838  1.00  0.00     0.081 C 
ATOM     15  C   UNL     1      -1.355  -4.144  -0.108  1.00  0.00     0.031 C 
ATOM     16  C   UNL     1      -0.531  -3.183  -2.317  1.00  0.00     0.031 C 
ENDBRANCH   6  14
BRANCH   8  17
ATOM     17  C   UNL     1      -2.246   1.674   0.563  1.00  0.00    -0.015 A 
ATOM     18  C   UNL     1      -2.177   1.832   1.954  1.00  0.00     0.012 A 
ATOM     19  C   UNL     1      -2.291   2.806  -0.263  1.00  0.00     0.012 A 
ATOM     20  C   UNL     1      -2.142   3.111   2.512  1.00  0.00     0.040 A 
ATOM     21  C   UNL     1      -2.255   4.083   0.297  1.00  0.00     0.040 A 
ATOM     22  C   UNL     1      -2.180   4.223   1.679  1.00  0.00     0.123 A 
ATOM     23  F   UNL     1      -2.143   5.450   2.215  1.00  0.00    -0.207 F 
ENDBRANCH   8  17
ENDBRANCH   4   5
ENDBRANCH   2   3
BRANCH   2  24
ATOM     24  O   UNL     1       2.425  -0.149   2.145  1.00  0.00    -0.389 OA
ATOM     25  H   UNL     1       1.721   0.127   2.760  1.00  0.00     0.211 HD
ENDBRANCH   2  24
ENDBRANCH   1   2
BRANCH   1  26
ATOM     26  C   UNL     1       4.786   0.299   0.508  1.00  0.00     0.128 C 
BRANCH  26  27
ATOM     27  O   UNL     1       4.945  -0.764   1.452  1.00  0.00    -0.392 OA
ATOM     28  H   UNL     1       4.133  -0.778   2.005  1.00  0.00     0.210 HD
ENDBRANCH  26  27
BRANCH  26  29
ATOM     29  C   UNL     1       5.158   1.625   1.166  1.00  0.00     0.154 C 
BRANCH  29  30
ATOM     30  C   UNL     1       6.647   1.789   1.274  1.00  0.00     0.305 C 
ATOM     31  O   UNL     1       7.282   1.958   2.302  1.00  0.00    -0.252 OA
BRANCH  30  32
ATOM     32  O   UNL     1       7.265   1.821   0.077  1.00  0.00    -0.481 OA
ATOM     33  H   UNL     1       8.212   1.932   0.310  1.00  0.00     0.296 HD
ENDBRANCH  30  32
ENDBRANCH  29  30
ENDBRANCH  26  29
ENDBRANCH   1  26
TORSDOF 11
