REMARK SMILES Cn1c(CCCC(=O)O)nc2cc(N(CCCl)CCCl)ccc21
REMARK SMILES IDX 4 1 3 2 1 3 2 4 23 5 10 6 11 7 22 8 12 9 21 10 13 11 14 12
REMARK SMILES IDX 15 13 16 14 17 15 18 16 19 17 20 18 5 19 6 20 7 21 8 22 9 23
REMARK H PARENT 9 24
REMARK Flexibility Score: inf
ROOT
ATOM      1  C   UNL     1       3.401  -0.147  -0.647  1.00  0.00     0.076 C 
ENDROOT
BRANCH   1   2
ATOM      2  C   UNL     1       1.908  -0.233  -0.604  1.00  0.00     0.109 A 
ATOM      3  C   UNL     1       1.738  -2.664  -1.214  1.00  0.00     0.151 C 
ATOM      4  N   UNL     1       1.185  -1.378  -0.864  1.00  0.00    -0.331 N 
ATOM      5  C   UNL     1      -0.153  -1.081  -0.739  1.00  0.00     0.068 A 
ATOM      6  N   UNL     1       1.104   0.769  -0.312  1.00  0.00    -0.233 NA
ATOM      7  C   UNL     1      -0.168   0.265  -0.388  1.00  0.00     0.091 A 
ATOM      8  C   UNL     1      -1.325  -1.828  -0.892  1.00  0.00     0.031 A 
ATOM      9  C   UNL     1      -1.394   0.914  -0.170  1.00  0.00     0.056 A 
ATOM     10  C   UNL     1      -2.537  -1.160  -0.671  1.00  0.00     0.028 A 
ATOM     11  C   UNL     1      -2.591   0.195  -0.312  1.00  0.00     0.039 A 
BRANCH  11  12
ATOM     12  N   UNL     1      -3.867   0.773  -0.109  1.00  0.00    -0.369 N 
BRANCH  12  13
ATOM     13  C   UNL     1      -4.190   1.796  -1.138  1.00  0.00     0.132 C 
BRANCH  13  14
ATOM     14  C   UNL     1      -4.392   1.212  -2.540  1.00  0.00     0.131 C 
ATOM     15  Cl  UNL     1      -5.818   0.140  -2.618  1.00  0.00    -0.125 Cl
ENDBRANCH  13  14
ENDBRANCH  12  13
BRANCH  12  16
ATOM     16  C   UNL     1      -4.063   1.256   1.282  1.00  0.00     0.132 C 
BRANCH  16  17
ATOM     17  C   UNL     1      -4.070   0.111   2.297  1.00  0.00     0.131 C 
ATOM     18  Cl  UNL     1      -4.465   0.721   3.926  1.00  0.00    -0.125 Cl
ENDBRANCH  16  17
ENDBRANCH  12  16
ENDBRANCH  11  12
ENDBRANCH   1   2
BRANCH   1  19
ATOM     19  C   UNL     1       4.007  -0.361   0.743  1.00  0.00     0.020 C 
BRANCH  19  20
ATOM     20  C   UNL     1       5.533  -0.434   0.709  1.00  0.00     0.123 C 
BRANCH  20  21
ATOM     21  C   UNL     1       6.176   0.883   0.368  1.00  0.00     0.303 C 
ATOM     22  O   UNL     1       5.715   1.997   0.531  1.00  0.00    -0.252 OA
BRANCH  21  23
ATOM     23  O   UNL     1       7.412   0.722  -0.142  1.00  0.00    -0.481 OA
ATOM     24  H   UNL     1       7.725   1.638  -0.295  1.00  0.00     0.296 HD
ENDBRANCH  21  23
ENDBRANCH  20  21
ENDBRANCH  19  20
ENDBRANCH   1  19
TORSDOF 10
