REMARK SMILES C[C@@H]1CN(c2c(F)c(N)c3c(=O)c(C(=O)O)cn(C4CC4)c3c2F)C[C@H](C)N1
REMARK SMILES IDX 5 1 6 2 7 3 8 4 10 5 11 6 12 7 13 8 17 9 18 10 22 11 23 12
REMARK SMILES IDX 24 13 4 14 1 15 2 16 3 17 28 18 26 19 25 21 27 22 9 23 19 26
REMARK SMILES IDX 20 27 21 28 14 29 15 30 16 31
REMARK H PARENT 28 20 9 24 9 25 16 32
REMARK Flexibility Score: inf
ROOT
ATOM      1  C   UNL     1      -0.512   0.318   0.615  1.00  0.00     0.114 A 
ATOM      2  C   UNL     1      -0.081   1.271   1.554  1.00  0.00     0.173 A 
ATOM      3  F   UNL     1      -0.976   1.898   2.339  1.00  0.00    -0.202 F 
ATOM      4  C   UNL     1       1.269   1.633   1.719  1.00  0.00     0.084 A 
ATOM      5  C   UNL     1       2.230   1.047   0.872  1.00  0.00     0.076 A 
ATOM      6  C   UNL     1       3.674   1.409   1.010  1.00  0.00     0.206 C 
ATOM      7  O   UNL     1       4.078   1.993   2.013  1.00  0.00    -0.288 OA
ATOM      8  C   UNL     1       4.595   0.987  -0.067  1.00  0.00     0.124 C 
ATOM      9  C   UNL     1       4.144   0.055  -0.917  1.00  0.00     0.106 C 
ATOM     10  N   UNL     1       2.884  -0.512  -0.901  1.00  0.00    -0.341 N 
ATOM     11  C   UNL     1       1.866   0.073  -0.083  1.00  0.00     0.093 A 
ATOM     12  C   UNL     1       0.500  -0.265  -0.184  1.00  0.00     0.174 A 
ATOM     13  F   UNL     1       0.121  -1.191  -1.083  1.00  0.00    -0.202 F 
ENDROOT
BRANCH   1  14
ATOM     14  N   UNL     1      -1.856  -0.086   0.448  1.00  0.00    -0.364 N 
ATOM     15  C   UNL     1      -5.163  -0.245   2.376  1.00  0.00     0.026 C 
ATOM     16  C   UNL     1      -4.144  -0.573   1.286  1.00  0.00     0.070 C 
ATOM     17  C   UNL     1      -2.822   0.206   1.530  1.00  0.00     0.135 C 
ATOM     18  N   UNL     1      -4.745  -0.271  -0.032  1.00  0.00    -0.308 NA
ATOM     19  C   UNL     1      -3.756  -0.530  -1.102  1.00  0.00     0.070 C 
ATOM     20  H   UNL     1      -5.560  -0.866  -0.175  1.00  0.00     0.123 HD
ATOM     21  C   UNL     1      -2.419   0.234  -0.888  1.00  0.00     0.135 C 
ATOM     22  C   UNL     1      -4.377  -0.147  -2.444  1.00  0.00     0.026 C 
ENDBRANCH   1  14
BRANCH   4  23
ATOM     23  N   UNL     1       1.577   2.732   2.556  1.00  0.00    -0.396 N 
ATOM     24  H   UNL     1       0.935   2.844   3.337  1.00  0.00     0.156 HD
ATOM     25  H   UNL     1       2.565   2.751   2.834  1.00  0.00     0.156 HD
ENDBRANCH   4  23
BRANCH  10  26
ATOM     26  C   UNL     1       2.590  -1.569  -1.887  1.00  0.00     0.087 C 
ATOM     27  C   UNL     1       3.536  -2.718  -2.152  1.00  0.00     0.027 C 
ATOM     28  C   UNL     1       2.243  -2.971  -1.448  1.00  0.00     0.027 C 
ENDBRANCH  10  26
BRANCH   8  29
ATOM     29  C   UNL     1       5.965   1.477  -0.244  1.00  0.00     0.341 C 
ATOM     30  O   UNL     1       6.867   0.885  -0.815  1.00  0.00    -0.246 OA
BRANCH  29  31
ATOM     31  O   UNL     1       6.149   2.719   0.229  1.00  0.00    -0.477 OA
ATOM     32  H   UNL     1       7.093   2.917   0.063  1.00  0.00     0.297 HD
ENDBRANCH  29  31
ENDBRANCH   8  29
TORSDOF 5
