REMARK SMILES NC(=O)[C@](O)(CNc1nc(-c2cc(-c3ccon3)n(Cc3ccccc3F)n2)ncc1F)C(F)(F)F
REMARK SMILES IDX 8 1 31 2 32 3 30 4 29 5 10 6 9 7 7 8 6 10 4 11 2 12 1 13
REMARK SMILES IDX 3 16 5 17 33 19 34 20 35 21 36 22 11 23 28 24 12 25 19 26
REMARK SMILES IDX 13 27 20 28 21 29 26 30 22 31 27 32 25 33 23 34 24 35 14 36
REMARK SMILES IDX 18 37 15 38 17 39 16 40
REMARK H PARENT 7 9 1 14 1 15 5 18
REMARK Flexibility Score: inf
ROOT
ATOM      1  C   UNL     1      -3.026  -0.518  -1.220  1.00  0.00     0.166 A 
ATOM      2  C   UNL     1      -3.642  -1.713  -1.570  1.00  0.00     0.183 A 
ATOM      3  F   UNL     1      -4.968  -1.794  -1.753  1.00  0.00    -0.201 F 
ATOM      4  C   UNL     1      -2.838  -2.815  -1.729  1.00  0.00     0.156 A 
ATOM      5  N   UNL     1      -1.503  -2.784  -1.557  1.00  0.00    -0.232 NA
ATOM      6  C   UNL     1      -0.982  -1.584  -1.217  1.00  0.00     0.182 A 
ATOM      7  N   UNL     1      -1.697  -0.450  -1.038  1.00  0.00    -0.206 NA
ENDROOT
BRANCH   1   8
ATOM      8  N   UNL     1      -3.837   0.615  -0.982  1.00  0.00    -0.364 N 
ATOM      9  H   UNL     1      -4.497   0.687  -1.760  1.00  0.00     0.162 HD
BRANCH   8  10
ATOM     10  C   UNL     1      -3.117   1.879  -0.762  1.00  0.00     0.170 C 
BRANCH  10  11
ATOM     11  C   UNL     1      -3.961   2.976  -0.093  1.00  0.00     0.256 C 
BRANCH  11  12
ATOM     12  C   UNL     1      -5.308   3.221  -0.781  1.00  0.00     0.260 C 
ATOM     13  N   UNL     1      -6.180   2.184  -0.938  1.00  0.00    -0.367 N 
ATOM     14  H   UNL     1      -6.090   1.336  -0.381  1.00  0.00     0.159 HD
ATOM     15  H   UNL     1      -7.108   2.417  -1.274  1.00  0.00     0.159 HD
ATOM     16  O   UNL     1      -5.630   4.341  -1.184  1.00  0.00    -0.272 OA
ENDBRANCH  11  12
BRANCH  11  17
ATOM     17  O   UNL     1      -3.204   4.219  -0.206  1.00  0.00    -0.371 OA
ATOM     18  H   UNL     1      -3.870   4.939  -0.277  1.00  0.00     0.212 HD
ENDBRANCH  11  17
BRANCH  11  19
ATOM     19  C   UNL     1      -4.254   2.645   1.366  1.00  0.00     0.428 C 
ATOM     20  F   UNL     1      -4.927   3.657   1.970  1.00  0.00    -0.167 F 
ATOM     21  F   UNL     1      -5.019   1.535   1.508  1.00  0.00    -0.167 F 
ATOM     22  F   UNL     1      -3.123   2.445   2.083  1.00  0.00    -0.167 F 
ENDBRANCH  11  19
ENDBRANCH  10  11
ENDBRANCH   8  10
ENDBRANCH   1   8
BRANCH   6  23
ATOM     23  C   UNL     1       0.476  -1.530  -1.006  1.00  0.00     0.130 A 
ATOM     24  N   UNL     1       1.168  -0.386  -0.851  1.00  0.00    -0.169 NA
ATOM     25  C   UNL     1       1.354  -2.646  -0.942  1.00  0.00     0.064 A 
ATOM     26  N   UNL     1       2.453  -0.775  -0.649  1.00  0.00    -0.258 N 
ATOM     27  C   UNL     1       2.612  -2.134  -0.715  1.00  0.00     0.091 A 
BRANCH  26  28
ATOM     28  C   UNL     1       3.464   0.259  -0.437  1.00  0.00     0.183 C 
BRANCH  28  29
ATOM     29  C   UNL     1       3.668   0.580   1.020  1.00  0.00     0.009 A 
ATOM     30  C   UNL     1       4.953   0.551   1.574  1.00  0.00     0.128 A 
ATOM     31  C   UNL     1       2.598   0.973   1.845  1.00  0.00     0.008 A 
ATOM     32  F   UNL     1       6.011   0.239   0.810  1.00  0.00    -0.207 F 
ATOM     33  C   UNL     1       5.175   0.860   2.914  1.00  0.00     0.039 A 
ATOM     34  C   UNL     1       2.814   1.291   3.189  1.00  0.00     0.001 A 
ATOM     35  C   UNL     1       4.101   1.228   3.726  1.00  0.00     0.003 A 
ENDBRANCH  28  29
ENDBRANCH  26  28
BRANCH  27  36
ATOM     36  C   UNL     1       3.915  -2.968  -0.564  1.00  0.00     0.131 A 
ATOM     37  N   UNL     1       5.110  -2.414  -0.355  1.00  0.00    -0.078 NA
ATOM     38  C   UNL     1       4.013  -4.377  -0.633  1.00  0.00     0.075 A 
ATOM     39  O   UNL     1       6.009  -3.465  -0.277  1.00  0.00    -0.364 OA
ATOM     40  C   UNL     1       5.346  -4.634  -0.446  1.00  0.00     0.231 A 
ENDBRANCH  27  36
ENDBRANCH   6  23
TORSDOF 10
