REMARK SMILES CC1=Nc2c(F)cc(-c3nc(Nc4ccc(C5CCN(C)CC5)cn4)ncc3F)cc2C12CCCC2
REMARK SMILES IDX 12 1 13 3 16 4 15 5 24 6 14 7 25 8 17 9 21 10 20 11 19 12
REMARK SMILES IDX 22 13 18 14 23 15 11 16 26 17 10 18 27 19 9 20 28 21 29 22
REMARK SMILES IDX 8 23 30 24 7 25 31 26 5 27 4 28 32 29 6 30 3 31 2 32 33 33
REMARK SMILES IDX 36 34 1 35 34 36 35 37
REMARK H PARENT 12 2
REMARK Flexibility Score: inf
ROOT
ATOM      1  N   UNL     1       1.224   0.851   0.319  1.00  0.00    -0.309 N 
ATOM      2  H   UNL     1       0.991   1.320  -0.544  1.00  0.00     0.171 HD
ENDROOT
BRANCH   1   3
ATOM      3  C   UNL     1       2.574   0.468   0.365  1.00  0.00     0.132 A 
ATOM      4  C   UNL     1       5.279  -0.185   0.440  1.00  0.00    -0.026 A 
ATOM      5  C   UNL     1       4.888   1.116   0.131  1.00  0.00     0.009 A 
ATOM      6  C   UNL     1       4.257  -1.092   0.699  1.00  0.00     0.117 A 
ATOM      7  C   UNL     1       3.533   1.443   0.095  1.00  0.00     0.047 A 
ATOM      8  N   UNL     1       2.938  -0.794   0.664  1.00  0.00    -0.239 NA
BRANCH   4   9
ATOM      9  C   UNL     1       6.729  -0.615   0.521  1.00  0.00     0.023 C 
ATOM     10  C   UNL     1      10.706   0.673   0.745  1.00  0.00     0.105 C 
ATOM     11  N   UNL     1       9.355   0.817   0.212  1.00  0.00    -0.306 NA
ATOM     12  C   UNL     1       8.977  -0.359  -0.580  1.00  0.00     0.085 C 
ATOM     13  C   UNL     1       8.385   1.187   1.250  1.00  0.00     0.085 C 
ATOM     14  C   UNL     1       7.470  -0.420  -0.814  1.00  0.00     0.024 C 
ATOM     15  C   UNL     1       7.477   0.042   1.698  1.00  0.00     0.024 C 
ENDBRANCH   4   9
ENDBRANCH   1   3
BRANCH   1  16
ATOM     16  C   UNL     1       0.123   0.078   0.677  1.00  0.00     0.229 A 
ATOM     17  N   UNL     1       0.154  -0.741   1.739  1.00  0.00    -0.218 NA
ATOM     18  N   UNL     1      -0.979   0.273  -0.071  1.00  0.00    -0.210 NA
ATOM     19  C   UNL     1      -0.968  -1.427   2.022  1.00  0.00     0.156 A 
ATOM     20  C   UNL     1      -2.105  -0.421   0.244  1.00  0.00     0.112 A 
ATOM     21  C   UNL     1      -2.129  -1.305   1.305  1.00  0.00     0.167 A 
ATOM     22  F   UNL     1      -3.210  -2.025   1.634  1.00  0.00    -0.203 F 
BRANCH  20  23
ATOM     23  C   UNL     1      -3.270  -0.151  -0.627  1.00  0.00     0.007 A 
ATOM     24  C   UNL     1      -4.591  -0.175  -0.136  1.00  0.00     0.017 A 
ATOM     25  C   UNL     1      -3.078   0.160  -1.996  1.00  0.00     0.052 A 
ATOM     26  C   UNL     1      -5.651   0.095  -0.996  1.00  0.00    -0.007 A 
ATOM     27  C   UNL     1      -4.154   0.427  -2.845  1.00  0.00     0.149 A 
ATOM     28  C   UNL     1      -5.441   0.392  -2.344  1.00  0.00     0.103 A 
ATOM     29  C   UNL     1      -7.132   0.127  -0.737  1.00  0.00     0.036 C 
ATOM     30  F   UNL     1      -3.921   0.712  -4.134  1.00  0.00    -0.205 F 
ATOM     31  N   UNL     1      -6.642   0.633  -3.036  1.00  0.00    -0.254 NA
ATOM     32  C   UNL     1      -7.600   0.497  -2.161  1.00  0.00     0.026 C 
ATOM     33  C   UNL     1      -7.547   1.181   0.300  1.00  0.00     0.018 C 
ATOM     34  C   UNL     1      -7.694  -1.218  -0.251  1.00  0.00     0.018 C 
ATOM     35  C   UNL     1      -9.040   0.699  -2.513  1.00  0.00     0.063 C 
ATOM     36  C   UNL     1      -8.672   0.518   1.085  1.00  0.00     0.001 C 
ATOM     37  C   UNL     1      -8.247  -0.938   1.143  1.00  0.00     0.001 C 
ENDBRANCH  20  23
ENDBRANCH   1  16
TORSDOF 4
