REMARK SMILES CCCCC1C(=O)N(c2ccccc2)N(c2ccc(O)cc2)C1=O
REMARK SMILES IDX 5 1 6 2 7 3 8 4 15 5 23 6 24 7 4 8 3 9 2 10 1 11 9 12 10 13
REMARK SMILES IDX 14 14 11 15 13 16 12 17 16 18 17 19 22 20 18 21 21 22 19 23
REMARK SMILES IDX 20 24
REMARK H PARENT 20 25
REMARK Flexibility Score: inf
ROOT
ATOM      1  C   UNL     1       1.617  -0.636   1.527  1.00  0.00     0.172 C 
ATOM      2  C   UNL     1       0.922  -1.686   0.703  1.00  0.00     0.258 C 
ATOM      3  O   UNL     1       1.424  -2.765   0.422  1.00  0.00    -0.272 OA
ATOM      4  N   UNL     1      -0.373  -1.208   0.448  1.00  0.00    -0.213 N 
ATOM      5  N   UNL     1      -0.500   0.134   0.904  1.00  0.00    -0.213 N 
ATOM      6  C   UNL     1       0.648   0.510   1.621  1.00  0.00     0.258 C 
ATOM      7  O   UNL     1       0.905   1.570   2.176  1.00  0.00    -0.272 OA
ENDROOT
BRANCH   1   8
ATOM      8  C   UNL     1       2.978  -0.232   0.957  1.00  0.00     0.024 C 
BRANCH   8   9
ATOM      9  C   UNL     1       2.912   0.374  -0.452  1.00  0.00     0.001 C 
BRANCH   9  10
ATOM     10  C   UNL     1       4.292   0.672  -1.044  1.00  0.00    -0.003 C 
ATOM     11  C   UNL     1       5.048   1.763  -0.302  1.00  0.00     0.004 C 
ENDBRANCH   9  10
ENDBRANCH   8   9
ENDBRANCH   1   8
BRANCH   4  12
ATOM     12  C   UNL     1      -1.490  -2.095   0.339  1.00  0.00     0.067 A 
ATOM     13  C   UNL     1      -2.756  -1.735   0.832  1.00  0.00     0.028 A 
ATOM     14  C   UNL     1      -1.359  -3.352  -0.269  1.00  0.00     0.028 A 
ATOM     15  C   UNL     1      -3.849  -2.600   0.719  1.00  0.00     0.002 A 
ATOM     16  C   UNL     1      -2.452  -4.219  -0.382  1.00  0.00     0.002 A 
ATOM     17  C   UNL     1      -3.696  -3.842   0.111  1.00  0.00     0.000 A 
ENDBRANCH   4  12
BRANCH   5  18
ATOM     18  C   UNL     1      -1.273   1.114   0.200  1.00  0.00     0.067 A 
ATOM     19  C   UNL     1      -1.816   0.842  -1.067  1.00  0.00     0.032 A 
ATOM     20  C   UNL     1      -1.517   2.377   0.762  1.00  0.00     0.032 A 
ATOM     21  C   UNL     1      -2.573   1.801  -1.746  1.00  0.00     0.048 A 
ATOM     22  C   UNL     1      -2.274   3.339   0.084  1.00  0.00     0.048 A 
ATOM     23  C   UNL     1      -2.796   3.041  -1.167  1.00  0.00     0.115 A 
BRANCH  23  24
ATOM     24  O   UNL     1      -3.537   3.946  -1.865  1.00  0.00    -0.508 OA
ATOM     25  H   UNL     1      -3.591   4.769  -1.350  1.00  0.00     0.293 HD
ENDBRANCH  23  24
ENDBRANCH   5  18
TORSDOF 6
