REMARK SMILES C[N+]1(C)CCCC1COC(=O)C(O)(c1ccccc1)c1ccccc1
REMARK SMILES IDX 10 1 11 2 9 3 8 4 7 5 1 6 2 7 3 8 4 9 5 10 6 11 12 12 13 13
REMARK SMILES IDX 14 15 15 16 19 17 16 18 18 19 17 20 20 21 21 22 25 23 22 24
REMARK SMILES IDX 24 25 23 26
REMARK H PARENT 13 14
REMARK Flexibility Score: inf
ROOT
ATOM      1  C   UNL     1      -0.332  -1.318  -0.077  1.00  0.00     0.347 C 
ATOM      2  O   UNL     1      -0.086  -1.930   0.955  1.00  0.00    -0.248 OA
ENDROOT
BRANCH   1   3
ATOM      3  O   UNL     1       0.665  -0.912  -0.943  1.00  0.00    -0.457 OA
BRANCH   3   4
ATOM      4  C   UNL     1       1.959  -1.497  -0.724  1.00  0.00     0.297 C 
BRANCH   4   5
ATOM      5  C   UNL     1       2.914  -0.635   0.122  1.00  0.00     0.223 C 
ATOM      6  C   UNL     1       4.676   0.417  -1.372  1.00  0.00     0.334 C 
ATOM      7  N   UNL     1       3.414   0.687  -0.564  1.00  0.00    -0.323 N 
ATOM      8  C   UNL     1       2.380   1.347  -1.470  1.00  0.00     0.334 C 
ATOM      9  C   UNL     1       3.725   1.651   0.616  1.00  0.00     0.264 C 
ATOM     10  C   UNL     1       3.473   0.844   1.877  1.00  0.00     0.068 C 
ATOM     11  C   UNL     1       2.404  -0.148   1.469  1.00  0.00     0.074 C 
ENDBRANCH   4   5
ENDBRANCH   3   4
ENDBRANCH   1   3
BRANCH   1  12
ATOM     12  C   UNL     1      -1.725  -0.793  -0.570  1.00  0.00     0.213 C 
BRANCH  12  13
ATOM     13  O   UNL     1      -1.663  -0.929  -2.013  1.00  0.00    -0.370 OA
ATOM     14  H   UNL     1      -1.001  -0.288  -2.321  1.00  0.00     0.213 HD
ENDBRANCH  12  13
BRANCH  12  15
ATOM     15  C   UNL     1      -1.895   0.703  -0.245  1.00  0.00    -0.001 A 
ATOM     16  C   UNL     1      -2.586   1.553  -1.129  1.00  0.00     0.008 A 
ATOM     17  C   UNL     1      -1.417   1.257   0.958  1.00  0.00     0.008 A 
ATOM     18  C   UNL     1      -2.749   2.911  -0.845  1.00  0.00     0.000 A 
ATOM     19  C   UNL     1      -1.580   2.616   1.241  1.00  0.00     0.000 A 
ATOM     20  C   UNL     1      -2.240   3.443   0.336  1.00  0.00     0.000 A 
ENDBRANCH  12  15
BRANCH  12  21
ATOM     21  C   UNL     1      -2.896  -1.634  -0.050  1.00  0.00    -0.001 A 
ATOM     22  C   UNL     1      -3.116  -1.805   1.331  1.00  0.00     0.008 A 
ATOM     23  C   UNL     1      -3.810  -2.242  -0.932  1.00  0.00     0.008 A 
ATOM     24  C   UNL     1      -4.194  -2.557   1.806  1.00  0.00     0.000 A 
ATOM     25  C   UNL     1      -4.887  -2.995  -0.457  1.00  0.00     0.000 A 
ATOM     26  C   UNL     1      -5.079  -3.152   0.912  1.00  0.00     0.000 A 
ENDBRANCH  12  21
ENDBRANCH   1  12
TORSDOF 7
