REMARK SMILES CC(C)=CCC1C(=O)N(c2ccccc2)N(c2ccccc2)C1=O
REMARK SMILES IDX 6 1 7 2 8 3 9 4 16 5 23 6 24 7 5 8 4 9 1 10 2 11 3 12 10 13
REMARK SMILES IDX 11 14 15 15 12 16 14 17 13 18 17 19 18 20 22 21 19 22 21 23
REMARK SMILES IDX 20 24
REMARK H PARENT
REMARK Flexibility Score: inf
ROOT
ATOM      1  C   UNL     1       1.366   0.076  -0.300  1.00  0.00     0.176 C 
ATOM      2  C   UNL     1       0.547   1.263   0.134  1.00  0.00     0.259 C 
ATOM      3  O   UNL     1       1.033   2.344   0.437  1.00  0.00    -0.272 OA
ATOM      4  N   UNL     1      -0.803   0.897   0.023  1.00  0.00    -0.213 N 
ATOM      5  N   UNL     1      -0.909  -0.479  -0.309  1.00  0.00    -0.213 N 
ATOM      6  C   UNL     1       0.361  -1.007  -0.593  1.00  0.00     0.259 C 
ATOM      7  O   UNL     1       0.662  -2.141  -0.939  1.00  0.00    -0.272 OA
ENDROOT
BRANCH   1   8
ATOM      8  C   UNL     1       2.338  -0.328   0.805  1.00  0.00     0.051 C 
BRANCH   8   9
ATOM      9  C   UNL     1       3.475  -1.168   0.284  1.00  0.00    -0.027 C 
ATOM     10  C   UNL     1       5.760  -1.745  -0.488  1.00  0.00     0.039 C 
ATOM     11  C   UNL     1       4.727  -0.762  -0.001  1.00  0.00    -0.080 C 
ATOM     12  C   UNL     1       5.223   0.654   0.110  1.00  0.00     0.039 C 
ENDBRANCH   8   9
ENDBRANCH   1   8
BRANCH   4  13
ATOM     13  C   UNL     1      -1.807   1.855  -0.328  1.00  0.00     0.067 A 
ATOM     14  C   UNL     1      -1.755   3.168   0.163  1.00  0.00     0.028 A 
ATOM     15  C   UNL     1      -2.878   1.512  -1.170  1.00  0.00     0.028 A 
ATOM     16  C   UNL     1      -2.739   4.105  -0.174  1.00  0.00     0.002 A 
ATOM     17  C   UNL     1      -3.862   2.447  -1.506  1.00  0.00     0.002 A 
ATOM     18  C   UNL     1      -3.792   3.744  -1.008  1.00  0.00     0.000 A 
ENDBRANCH   4  13
BRANCH   5  19
ATOM     19  C   UNL     1      -1.960  -1.313   0.195  1.00  0.00     0.067 A 
ATOM     20  C   UNL     1      -2.140  -2.617  -0.289  1.00  0.00     0.028 A 
ATOM     21  C   UNL     1      -2.845  -0.852   1.182  1.00  0.00     0.028 A 
ATOM     22  C   UNL     1      -3.168  -3.432   0.196  1.00  0.00     0.002 A 
ATOM     23  C   UNL     1      -3.874  -1.666   1.668  1.00  0.00     0.002 A 
ATOM     24  C   UNL     1      -4.035  -2.956   1.175  1.00  0.00     0.000 A 
ENDBRANCH   5  19
TORSDOF 4
