REMARK SMILES CCn1cc(C(=O)O)c(=O)c2cc(F)c(N3CCNCC3)nc21
REMARK SMILES IDX 3 1 4 2 5 3 9 4 10 5 11 6 12 7 13 8 14 9 15 10 22 11 23 12
REMARK SMILES IDX 2 13 1 14 6 15 7 16 8 17 16 19 17 20 21 21 18 22 20 23 19 24
REMARK H PARENT 8 18 19 25
REMARK Flexibility Score: inf
ROOT
ATOM      1  N   UNL     1       2.212  -0.369  -0.517  1.00  0.00    -0.332 N 
ATOM      2  C   UNL     1       3.484   0.171  -0.591  1.00  0.00     0.107 C 
ATOM      3  C   UNL     1       3.821   1.449  -0.352  1.00  0.00     0.124 C 
ATOM      4  C   UNL     1       2.710   2.359   0.031  1.00  0.00     0.205 C 
ATOM      5  O   UNL     1       2.874   3.558   0.230  1.00  0.00    -0.288 OA
ATOM      6  C   UNL     1       1.352   1.787   0.169  1.00  0.00     0.069 A 
ATOM      7  C   UNL     1       0.293   2.591   0.579  1.00  0.00     0.059 A 
ATOM      8  C   UNL     1      -0.965   2.022   0.702  1.00  0.00     0.166 A 
ATOM      9  F   UNL     1      -1.968   2.799   1.138  1.00  0.00    -0.203 F 
ATOM     10  C   UNL     1      -1.163   0.666   0.405  1.00  0.00     0.167 A 
ATOM     11  N   UNL     1      -0.113  -0.104   0.017  1.00  0.00    -0.210 NA
ATOM     12  C   UNL     1       1.127   0.437  -0.106  1.00  0.00     0.146 A 
ENDROOT
BRANCH   1  13
ATOM     13  C   UNL     1       1.926  -1.790  -0.746  1.00  0.00     0.120 C 
ATOM     14  C   UNL     1       2.003  -2.580   0.553  1.00  0.00     0.027 C 
ENDBRANCH   1  13
BRANCH   3  15
ATOM     15  C   UNL     1       5.219   1.909  -0.456  1.00  0.00     0.341 C 
ATOM     16  O   UNL     1       5.662   3.003  -0.161  1.00  0.00    -0.246 OA
BRANCH  15  17
ATOM     17  O   UNL     1       6.057   0.966  -0.936  1.00  0.00    -0.477 OA
ATOM     18  H   UNL     1       6.923   1.428  -0.944  1.00  0.00     0.297 HD
ENDBRANCH  15  17
ENDBRANCH   3  15
BRANCH  10  19
ATOM     19  N   UNL     1      -2.430   0.061   0.541  1.00  0.00    -0.352 N 
ATOM     20  C   UNL     1      -2.406  -1.406   0.371  1.00  0.00     0.133 C 
ATOM     21  C   UNL     1      -3.499   0.724  -0.237  1.00  0.00     0.133 C 
ATOM     22  C   UNL     1      -3.805  -2.009   0.632  1.00  0.00     0.102 C 
ATOM     23  C   UNL     1      -4.866   0.049   0.025  1.00  0.00     0.102 C 
ATOM     24  N   UNL     1      -4.865  -1.410  -0.206  1.00  0.00    -0.313 NA
ATOM     25  H   UNL     1      -4.626  -1.576  -1.184  1.00  0.00     0.122 HD
ENDBRANCH  10  19
TORSDOF 4
