REMARK SMILES CC(C)Cc1ccc(C(C)C(=O)O)cc1
REMARK SMILES IDX 5 1 6 2 7 3 8 4 14 5 15 6 4 7 2 8 1 9 3 10 9 11 10 12 11 13
REMARK SMILES IDX 12 14 13 15
REMARK H PARENT 13 16
REMARK Flexibility Score: inf
ROOT
ATOM      1  C   UNL     1      -0.831   0.688   0.008  1.00  0.00    -0.048 A 
ATOM      2  C   UNL     1      -0.214   0.608   1.262  1.00  0.00     0.004 A 
ATOM      3  C   UNL     1       1.140   0.280   1.369  1.00  0.00     0.005 A 
ATOM      4  C   UNL     1       1.907   0.025   0.223  1.00  0.00    -0.034 A 
ATOM      5  C   UNL     1       1.286   0.109  -1.032  1.00  0.00     0.005 A 
ATOM      6  C   UNL     1      -0.068   0.438  -1.138  1.00  0.00     0.004 A 
ENDROOT
BRANCH   1   7
ATOM      7  C   UNL     1      -2.296   1.038  -0.105  1.00  0.00     0.038 C 
BRANCH   7   8
ATOM      8  C   UNL     1      -3.242  -0.092   0.346  1.00  0.00    -0.013 C 
ATOM      9  C   UNL     1      -4.680   0.429   0.406  1.00  0.00     0.008 C 
ATOM     10  C   UNL     1      -3.173  -1.305  -0.586  1.00  0.00     0.008 C 
ENDBRANCH   7   8
ENDBRANCH   1   7
BRANCH   4  11
ATOM     11  C   UNL     1       3.376  -0.331   0.357  1.00  0.00     0.126 C 
ATOM     12  C   UNL     1       3.673  -1.738  -0.167  1.00  0.00     0.025 C 
BRANCH  11  13
ATOM     13  C   UNL     1       4.267   0.686  -0.332  1.00  0.00     0.310 C 
ATOM     14  O   UNL     1       4.679   0.646  -1.480  1.00  0.00    -0.252 OA
BRANCH  13  15
ATOM     15  O   UNL     1       4.587   1.726   0.467  1.00  0.00    -0.481 OA
ATOM     16  H   UNL     1       5.116   2.314  -0.112  1.00  0.00     0.296 HD
ENDBRANCH  13  15
ENDBRANCH  11  13
ENDBRANCH   4  11
TORSDOF 5
