REMARK SMILES COc1cc(F)ccc1-c1c(C)sc2cnc(Nc3cnn(C4CCNCC4)c3)nc12
REMARK SMILES IDX 10 1 11 2 12 3 13 4 14 5 15 6 16 7 17 8 30 9 31 10 9 11 3 12
REMARK SMILES IDX 4 13 5 14 8 15 6 16 7 17 2 18 1 19 18 20 19 22 29 23 20 24
REMARK SMILES IDX 22 25 21 26 23 27 24 28 28 29 25 30 27 31 26 32
REMARK H PARENT 18 21 26 33
REMARK Flexibility Score: inf
ROOT
ATOM      1  C   UNL     1      -4.112  -1.220   0.220  1.00  0.00     0.026 A 
ATOM      2  C   UNL     1      -4.969  -1.996   0.986  1.00  0.00     0.012 A 
ATOM      3  C   UNL     1      -6.448  -2.171   0.862  1.00  0.00     0.057 C 
ATOM      4  S   UNL     1      -4.127  -2.812   2.235  1.00  0.00    -0.137 S 
ATOM      5  C   UNL     1      -2.621  -2.165   1.753  1.00  0.00     0.072 A 
ATOM      6  C   UNL     1      -1.361  -2.358   2.286  1.00  0.00     0.136 A 
ATOM      7  N   UNL     1      -0.305  -1.737   1.725  1.00  0.00    -0.220 NA
ATOM      8  C   UNL     1      -0.495  -0.940   0.660  1.00  0.00     0.227 A 
ATOM      9  N   UNL     1      -1.681  -0.707   0.090  1.00  0.00    -0.211 NA
ATOM     10  C   UNL     1      -2.747  -1.329   0.654  1.00  0.00     0.095 A 
ENDROOT
BRANCH   1  11
ATOM     11  C   UNL     1      -4.590  -0.417  -0.903  1.00  0.00     0.027 A 
ATOM     12  C   UNL     1      -5.288   0.793  -0.700  1.00  0.00     0.129 A 
ATOM     13  C   UNL     1      -5.716   1.525  -1.811  1.00  0.00     0.086 A 
ATOM     14  C   UNL     1      -5.440   1.061  -3.096  1.00  0.00     0.126 A 
ATOM     15  C   UNL     1      -4.316  -0.864  -2.207  1.00  0.00     0.016 A 
ATOM     16  F   UNL     1      -5.854   1.774  -4.152  1.00  0.00    -0.207 F 
ATOM     17  C   UNL     1      -4.745  -0.122  -3.305  1.00  0.00     0.040 A 
BRANCH  12  18
ATOM     18  O   UNL     1      -5.507   1.166   0.602  1.00  0.00    -0.496 OA
ATOM     19  C   UNL     1      -6.041   2.464   0.832  1.00  0.00     0.278 C 
ENDBRANCH  12  18
ENDBRANCH   1  11
BRANCH   8  20
ATOM     20  N   UNL     1       0.581  -0.284   0.057  1.00  0.00    -0.321 N 
ATOM     21  H   UNL     1       0.214   0.259  -0.714  1.00  0.00     0.170 HD
BRANCH  20  22
ATOM     22  C   UNL     1       1.894  -0.284   0.348  1.00  0.00     0.079 A 
ATOM     23  C   UNL     1       2.844   0.419  -0.350  1.00  0.00     0.135 A 
ATOM     24  C   UNL     1       2.611  -0.946   1.364  1.00  0.00     0.161 A 
ATOM     25  N   UNL     1       4.039   0.149   0.259  1.00  0.00    -0.267 N 
ATOM     26  N   UNL     1       3.923  -0.683   1.315  1.00  0.00    -0.179 NA
BRANCH  25  27
ATOM     27  C   UNL     1       5.344   0.667  -0.129  1.00  0.00     0.110 C 
ATOM     28  C   UNL     1       5.882   1.684   0.893  1.00  0.00     0.042 C 
ATOM     29  C   UNL     1       6.356  -0.452  -0.392  1.00  0.00     0.042 C 
ATOM     30  C   UNL     1       7.404   1.641   1.004  1.00  0.00     0.083 C 
ATOM     31  C   UNL     1       7.686   0.130  -0.874  1.00  0.00     0.083 C 
ATOM     32  N   UNL     1       8.002   1.446  -0.311  1.00  0.00    -0.317 NA
ATOM     33  H   UNL     1       9.015   1.554  -0.255  1.00  0.00     0.122 HD
ENDBRANCH  25  27
ENDBRANCH  20  22
ENDBRANCH   8  20
TORSDOF 5
