REMARK SMILES Cc1ccc(C(=O)c2ccc(CC(=O)O)n2C)cc1
REMARK SMILES IDX 8 1 9 2 10 3 11 4 16 5 17 6 6 7 7 8 5 9 1 10 2 11 3 12 19 13
REMARK SMILES IDX 4 14 18 15 12 16 13 17 14 18 15 19
REMARK H PARENT 15 20
REMARK Flexibility Score: inf
ROOT
ATOM      1  C   UNL     1      -0.676  -0.215  -0.098  1.00  0.00     0.089 A 
ATOM      2  C   UNL     1      -0.849   0.786   0.848  1.00  0.00     0.032 A 
ATOM      3  C   UNL     1      -2.207   1.160   0.862  1.00  0.00     0.024 A 
ATOM      4  C   UNL     1      -2.871   0.375  -0.060  1.00  0.00     0.029 A 
ATOM      5  N   UNL     1      -1.935  -0.470  -0.629  1.00  0.00    -0.344 N 
ATOM      6  C   UNL     1      -2.198  -1.482  -1.635  1.00  0.00     0.150 C 
ENDROOT
BRANCH   1   7
ATOM      7  C   UNL     1       0.542  -0.930  -0.465  1.00  0.00     0.209 C 
ATOM      8  O   UNL     1       0.542  -2.026  -1.023  1.00  0.00    -0.287 OA
BRANCH   7   9
ATOM      9  C   UNL     1       1.871  -0.334  -0.158  1.00  0.00     0.024 A 
ATOM     10  C   UNL     1       5.781   1.273   0.668  1.00  0.00     0.044 C 
ATOM     11  C   UNL     1       4.412   0.718   0.401  1.00  0.00    -0.051 A 
ATOM     12  C   UNL     1       3.405   1.540  -0.120  1.00  0.00     0.004 A 
ATOM     13  C   UNL     1       4.148  -0.642   0.608  1.00  0.00     0.004 A 
ATOM     14  C   UNL     1       2.139   1.018  -0.401  1.00  0.00     0.012 A 
ATOM     15  C   UNL     1       2.885  -1.167   0.328  1.00  0.00     0.012 A 
ENDBRANCH   7   9
ENDBRANCH   1   7
BRANCH   4  16
ATOM     16  C   UNL     1      -4.330   0.397  -0.412  1.00  0.00     0.176 C 
BRANCH  16  17
ATOM     17  C   UNL     1      -5.076  -0.792   0.153  1.00  0.00     0.309 C 
ATOM     18  O   UNL     1      -4.633  -1.882   0.477  1.00  0.00    -0.252 OA
BRANCH  17  19
ATOM     19  O   UNL     1      -6.407  -0.564   0.226  1.00  0.00    -0.481 OA
ATOM     20  H   UNL     1      -6.764  -1.401   0.590  1.00  0.00     0.296 HD
ENDBRANCH  17  19
ENDBRANCH  16  17
ENDBRANCH   4  16
TORSDOF 5
