REMARK SMILES CN1CC[C@]23c4c5ccc(O)c4O[C@H]2C(=O)CC[C@@]3(O)[C@H]1C5
REMARK SMILES IDX 1 1 2 2 3 3 4 4 5 5 6 6 7 7 8 8 9 9 10 10 12 11 13 12 14 13
REMARK SMILES IDX 15 14 16 15 17 16 18 17 19 18 21 19 22 20 20 21 11 23
REMARK H PARENT 20 22 11 24
REMARK Flexibility Score: inf
ROOT
ATOM      1  C   UNL     1      -3.314  -2.111   0.144  1.00  0.00     0.105 C 
ATOM      2  N   UNL     1      -1.963  -1.605   0.369  1.00  0.00    -0.300 NA
ATOM      3  C   UNL     1      -1.794  -1.133   1.742  1.00  0.00     0.086 C 
ATOM      4  C   UNL     1      -0.424  -0.493   2.005  1.00  0.00     0.035 C 
ATOM      5  C   UNL     1       0.059   0.444   0.865  1.00  0.00     0.075 C 
ATOM      6  C   UNL     1       1.159  -0.218   0.105  1.00  0.00     0.015 A 
ATOM      7  C   UNL     1       1.006  -1.125  -0.931  1.00  0.00    -0.038 A 
ATOM      8  C   UNL     1       2.173  -1.640  -1.500  1.00  0.00     0.008 A 
ATOM      9  C   UNL     1       3.437  -1.205  -1.050  1.00  0.00     0.050 A 
ATOM     10  C   UNL     1       3.541  -0.223  -0.059  1.00  0.00     0.158 A 
ATOM     11  C   UNL     1       2.384   0.278   0.495  1.00  0.00     0.166 A 
ATOM     12  O   UNL     1       2.272   1.314   1.386  1.00  0.00    -0.477 OA
ATOM     13  C   UNL     1       0.855   1.638   1.413  1.00  0.00     0.253 C 
ATOM     14  C   UNL     1       0.561   2.921   0.637  1.00  0.00     0.174 C 
ATOM     15  O   UNL     1       0.567   4.027   1.183  1.00  0.00    -0.295 OA
ATOM     16  C   UNL     1       0.360   2.801  -0.855  1.00  0.00     0.083 C 
ATOM     17  C   UNL     1      -0.644   1.723  -1.266  1.00  0.00     0.046 C 
ATOM     18  C   UNL     1      -1.058   0.749  -0.136  1.00  0.00     0.095 C 
ATOM     19  C   UNL     1      -1.525  -0.658  -0.688  1.00  0.00     0.093 C 
ATOM     20  C   UNL     1      -0.378  -1.394  -1.471  1.00  0.00     0.058 C 
ENDROOT
BRANCH  18  21
ATOM     21  O   UNL     1      -2.120   1.424   0.560  1.00  0.00    -0.387 OA
ATOM     22  H   UNL     1      -2.956   1.218   0.104  1.00  0.00     0.211 HD
ENDBRANCH  18  21
BRANCH  10  23
ATOM     23  O   UNL     1       4.749   0.260   0.340  1.00  0.00    -0.504 OA
ATOM     24  H   UNL     1       5.451  -0.224  -0.123  1.00  0.00     0.293 HD
ENDBRANCH  10  23
TORSDOF 2
