REMARK SMILES CN(CCOc1ccc(CC2SC(=O)NC2=O)cc1)c1ccccn1
REMARK SMILES IDX 4 1 3 2 2 3 1 4 20 5 21 6 25 7 22 8 24 9 23 10 5 11 6 12
REMARK SMILES IDX 7 13 19 14 8 15 18 16 9 17 10 18 11 19 12 20 16 21 13 22
REMARK SMILES IDX 15 23 17 24 14 25
REMARK H PARENT 15 26
REMARK Flexibility Score: inf
ROOT
ATOM      1  C   UNL     1      -1.342   0.414  -1.159  1.00  0.00     0.251 C 
ENDROOT
BRANCH   1   2
ATOM      2  C   UNL     1      -2.347  -0.685  -0.779  1.00  0.00     0.159 C 
BRANCH   2   3
ATOM      3  N   UNL     1      -3.268  -0.260   0.298  1.00  0.00    -0.356 N 
ATOM      4  C   UNL     1      -3.957  -1.378   0.950  1.00  0.00     0.145 C 
BRANCH   3   5
ATOM      5  C   UNL     1      -4.194   0.730  -0.105  1.00  0.00     0.128 A 
ATOM      6  C   UNL     1      -4.879   1.459   0.871  1.00  0.00     0.047 A 
ATOM      7  N   UNL     1      -4.388   0.982  -1.417  1.00  0.00    -0.239 NA
ATOM      8  C   UNL     1      -5.790   2.445   0.494  1.00  0.00     0.005 A 
ATOM      9  C   UNL     1      -5.276   1.942  -1.763  1.00  0.00     0.113 A 
ATOM     10  C   UNL     1      -5.997   2.692  -0.853  1.00  0.00     0.020 A 
ENDBRANCH   3   5
ENDBRANCH   2   3
ENDBRANCH   1   2
BRANCH   1  11
ATOM     11  O   UNL     1      -0.204  -0.138  -1.833  1.00  0.00    -0.492 OA
BRANCH  11  12
ATOM     12  C   UNL     1       0.855  -0.561  -1.079  1.00  0.00     0.119 A 
ATOM     13  C   UNL     1       0.898  -0.648   0.311  1.00  0.00     0.047 A 
ATOM     14  C   UNL     1       1.973  -0.953  -1.817  1.00  0.00     0.047 A 
ATOM     15  C   UNL     1       2.053  -1.108   0.954  1.00  0.00     0.007 A 
ATOM     16  C   UNL     1       3.127  -1.412  -1.179  1.00  0.00     0.007 A 
ATOM     17  C   UNL     1       3.182  -1.487   0.217  1.00  0.00    -0.046 A 
BRANCH  17  18
ATOM     18  C   UNL     1       4.439  -1.960   0.913  1.00  0.00     0.060 C 
BRANCH  18  19
ATOM     19  C   UNL     1       5.483  -0.880   1.221  1.00  0.00     0.150 C 
ATOM     20  S   UNL     1       4.910   0.420   2.367  1.00  0.00    -0.051 SA
ATOM     21  C   UNL     1       5.938  -0.145  -0.021  1.00  0.00     0.241 C 
ATOM     22  C   UNL     1       5.201   1.697   1.215  1.00  0.00     0.286 C 
ATOM     23  N   UNL     1       5.719   1.196   0.070  1.00  0.00    -0.286 N 
ATOM     24  O   UNL     1       6.457  -0.677  -0.995  1.00  0.00    -0.273 OA
ATOM     25  O   UNL     1       4.985   2.876   1.439  1.00  0.00    -0.261 OA
ATOM     26  H   UNL     1       5.962   1.814  -0.687  1.00  0.00     0.173 HD
ENDBRANCH  18  19
ENDBRANCH  17  18
ENDBRANCH  11  12
ENDBRANCH   1  11
TORSDOF 7
