REMARK SMILES c1ccc2c(CC3=NCCN3)cccc2c1
REMARK SMILES IDX 6 1 5 2 1 3 2 4 16 5 3 6 15 7 4 8 14 9 13 10 12 11 7 12 8 13
REMARK SMILES IDX 11 14 9 15 10 16
REMARK H PARENT 11 17
REMARK Flexibility Score: inf
ROOT
ATOM      1  C   UNL     1       0.886  -0.681   1.522  1.00  0.00     0.110 C 
ENDROOT
BRANCH   1   2
ATOM      2  C   UNL     1      -0.296  -0.969   0.616  1.00  0.00    -0.033 A 
ATOM      3  C   UNL     1      -3.455   1.773  -0.194  1.00  0.00     0.001 A 
ATOM      4  C   UNL     1      -2.440   2.147   0.676  1.00  0.00     0.001 A 
ATOM      5  C   UNL     1      -3.425   0.513  -0.787  1.00  0.00     0.009 A 
ATOM      6  C   UNL     1      -1.397   1.260   0.954  1.00  0.00     0.009 A 
ATOM      7  C   UNL     1      -2.382  -0.390  -0.520  1.00  0.00    -0.018 A 
ATOM      8  C   UNL     1      -1.337  -0.028   0.370  1.00  0.00    -0.015 A 
ATOM      9  C   UNL     1      -2.374  -1.648  -1.138  1.00  0.00     0.009 A 
ATOM     10  C   UNL     1      -1.347  -2.556  -0.899  1.00  0.00     0.001 A 
ATOM     11  C   UNL     1      -0.314  -2.217  -0.033  1.00  0.00     0.005 A 
ENDBRANCH   1   2
BRANCH   1  12
ATOM     12  C   UNL     1       2.073  -0.135   0.763  1.00  0.00     0.101 C 
ATOM     13  N   UNL     1       3.231  -0.747   0.782  1.00  0.00    -0.271 NA
ATOM     14  N   UNL     1       1.997   1.015   0.010  1.00  0.00    -0.372 N 
ATOM     15  C   UNL     1       4.103   0.100  -0.081  1.00  0.00     0.165 C 
ATOM     16  C   UNL     1       3.172   1.058  -0.829  1.00  0.00     0.137 C 
ATOM     17  H   UNL     1       1.105   1.191  -0.443  1.00  0.00     0.161 HD
ENDBRANCH   1  12
TORSDOF 2
