REMARK SMILES CNC(=O)c1nnc(NC(=O)C2CC2)cc1Nc1cccc(-c2ncn(C)n2)c1OC
REMARK SMILES IDX 5 1 6 2 7 3 8 4 15 5 16 6 3 7 1 8 2 9 4 11 17 12 18 14 19 15
REMARK SMILES IDX 29 16 20 17 22 18 21 19 30 20 31 21 23 22 24 23 28 24 25 25
REMARK SMILES IDX 26 26 27 27 9 28 10 29 11 31 12 32 13 33 14 34
REMARK H PARENT 2 10 17 13 9 30
REMARK Flexibility Score: inf
ROOT
ATOM      1  C   UNL     1       1.884   2.448  -0.625  1.00  0.00     0.174 A 
ATOM      2  N   UNL     1       3.215   2.608  -0.851  1.00  0.00    -0.141 NA
ATOM      3  N   UNL     1       4.060   1.554  -0.659  1.00  0.00    -0.132 NA
ATOM      4  C   UNL     1       3.582   0.364  -0.234  1.00  0.00     0.157 A 
ATOM      5  C   UNL     1       2.226   0.179  -0.006  1.00  0.00     0.077 A 
ATOM      6  C   UNL     1       1.326   1.232  -0.216  1.00  0.00     0.076 A 
ENDROOT
BRANCH   1   7
ATOM      7  C   UNL     1       1.059   3.680  -0.838  1.00  0.00     0.273 C 
ATOM      8  C   UNL     1       1.079   5.998  -1.687  1.00  0.00     0.143 C 
ATOM      9  N   UNL     1       1.742   4.770  -1.338  1.00  0.00    -0.354 N 
ATOM     10  H   UNL     1       2.717   4.637  -1.590  1.00  0.00     0.163 HD
ATOM     11  O   UNL     1      -0.139   3.699  -0.576  1.00  0.00    -0.267 OA
ENDBRANCH   1   7
BRANCH   6  12
ATOM     12  N   UNL     1      -0.061   1.062  -0.032  1.00  0.00    -0.350 N 
ATOM     13  H   UNL     1      -0.591   1.946  -0.012  1.00  0.00     0.167 HD
BRANCH  12  14
ATOM     14  C   UNL     1      -0.935  -0.028  -0.266  1.00  0.00     0.082 A 
ATOM     15  C   UNL     1      -0.557  -1.165  -0.988  1.00  0.00     0.030 A 
ATOM     16  C   UNL     1      -2.242   0.015   0.281  1.00  0.00     0.153 A 
ATOM     17  C   UNL     1      -1.458  -2.209  -1.203  1.00  0.00     0.003 A 
ATOM     18  C   UNL     1      -3.169  -1.020   0.054  1.00  0.00     0.065 A 
ATOM     19  C   UNL     1      -2.754  -2.133  -0.695  1.00  0.00     0.016 A 
BRANCH  16  20
ATOM     20  O   UNL     1      -2.620   1.154   0.961  1.00  0.00    -0.494 OA
ATOM     21  C   UNL     1      -2.236   1.061   2.334  1.00  0.00     0.278 C 
ENDBRANCH  16  20
BRANCH  18  22
ATOM     22  C   UNL     1      -4.538  -0.983   0.561  1.00  0.00     0.184 A 
ATOM     23  N   UNL     1      -4.884  -0.423   1.773  1.00  0.00    -0.215 NA
ATOM     24  N   UNL     1      -5.578  -1.549  -0.081  1.00  0.00    -0.151 NA
ATOM     25  C   UNL     1      -6.179  -0.613   1.850  1.00  0.00     0.220 A 
ATOM     26  N   UNL     1      -6.599  -1.273   0.745  1.00  0.00    -0.255 N 
ATOM     27  C   UNL     1      -7.939  -1.671   0.409  1.00  0.00     0.175 C 
ENDBRANCH  18  22
ENDBRANCH  12  14
ENDBRANCH   6  12
BRANCH   4  28
ATOM     28  N   UNL     1       4.558  -0.619  -0.051  1.00  0.00    -0.309 N 
ATOM     29  C   UNL     1       4.386  -1.912   0.362  1.00  0.00     0.228 C 
ATOM     30  H   UNL     1       5.495  -0.299  -0.256  1.00  0.00     0.171 HD
ATOM     31  O   UNL     1       3.340  -2.471   0.649  1.00  0.00    -0.274 OA
BRANCH  29  32
ATOM     32  C   UNL     1       5.669  -2.658   0.477  1.00  0.00     0.079 C 
ATOM     33  C   UNL     1       5.808  -4.010  -0.184  1.00  0.00     0.014 C 
ATOM     34  C   UNL     1       6.579  -2.838  -0.717  1.00  0.00     0.014 C 
ENDBRANCH  29  32
ENDBRANCH   4  28
TORSDOF 7
