REMARK SMILES COc1cc(NC(C)CCCN)c2ncccc2c1
REMARK SMILES IDX 7 1 8 2 6 3 5 5 3 6 4 7 19 8 18 9 13 10 17 11 14 12 16 13
REMARK SMILES IDX 15 14 2 15 1 16 9 17 10 18 11 19 12 20
REMARK H PARENT 6 4 12 21 12 22
REMARK Flexibility Score: inf
ROOT
ATOM      1  C   UNL     1       1.179   1.425  -0.542  1.00  0.00     0.076 C 
ATOM      2  C   UNL     1       1.405   2.700  -1.357  1.00  0.00     0.031 C 
ENDROOT
BRANCH   1   3
ATOM      3  N   UNL     1       0.285   0.555  -1.316  1.00  0.00    -0.381 N 
ATOM      4  H   UNL     1       0.742  -0.303  -1.648  1.00  0.00     0.160 HD
BRANCH   3   5
ATOM      5  C   UNL     1      -0.934   0.153  -0.702  1.00  0.00     0.065 A 
ATOM      6  C   UNL     1      -3.005   0.714   0.444  1.00  0.00     0.121 A 
ATOM      7  C   UNL     1      -1.795   1.103  -0.125  1.00  0.00     0.074 A 
ATOM      8  C   UNL     1      -3.362  -0.634   0.423  1.00  0.00     0.057 A 
ATOM      9  C   UNL     1      -2.527  -1.593  -0.172  1.00  0.00     0.006 A 
ATOM     10  C   UNL     1      -1.300  -1.208  -0.750  1.00  0.00     0.094 A 
ATOM     11  C   UNL     1      -2.883  -2.948  -0.211  1.00  0.00     0.012 A 
ATOM     12  N   UNL     1      -0.471  -2.112  -1.326  1.00  0.00    -0.254 NA
ATOM     13  C   UNL     1      -2.036  -3.871  -0.809  1.00  0.00     0.021 A 
ATOM     14  C   UNL     1      -0.852  -3.408  -1.348  1.00  0.00     0.112 A 
BRANCH   6  15
ATOM     15  O   UNL     1      -3.919   1.538   1.040  1.00  0.00    -0.497 OA
ATOM     16  C   UNL     1      -3.620   2.929   1.050  1.00  0.00     0.278 C 
ENDBRANCH   6  15
ENDBRANCH   3   5
ENDBRANCH   1   3
BRANCH   1  17
ATOM     17  C   UNL     1       2.525   0.724  -0.279  1.00  0.00     0.026 C 
BRANCH  17  18
ATOM     18  C   UNL     1       2.400  -0.439   0.715  1.00  0.00     0.017 C 
BRANCH  18  19
ATOM     19  C   UNL     1       3.738  -1.119   1.004  1.00  0.00     0.077 C 
BRANCH  19  20
ATOM     20  N   UNL     1       4.666  -0.222   1.684  1.00  0.00    -0.330 NA
ATOM     21  H   UNL     1       4.273   0.056   2.583  1.00  0.00     0.118 HD
ATOM     22  H   UNL     1       5.526  -0.726   1.895  1.00  0.00     0.118 HD
ENDBRANCH  19  20
ENDBRANCH  18  19
ENDBRANCH  17  18
ENDBRANCH   1  17
TORSDOF 7
