REMARK SMILES OC[C@H]1O[C@@H](n2cnc3c2N=CNC[C@H]3O)C[C@@H]1O
REMARK SMILES IDX 3 1 4 2 5 3 17 4 18 5 2 6 1 7 19 9 6 11 7 12 10 13 8 14 9 15
REMARK SMILES IDX 11 16 12 17 13 18 14 20 15 22 16 24
REMARK H PARENT 1 8 19 10 13 19 16 25
REMARK Flexibility Score: 90.00
ROOT
ATOM      1  C   UNL     1      -3.128   0.095   0.610  1.00  0.00     0.175 C 
ATOM      2  O   UNL     1      -1.919  -0.199   1.325  1.00  0.00    -0.350 OA
ATOM      3  C   UNL     1      -0.866   0.629   0.766  1.00  0.00     0.225 C 
ATOM      4  C   UNL     1      -1.501   1.498  -0.315  1.00  0.00     0.090 C 
ATOM      5  C   UNL     1      -2.694   0.674  -0.731  1.00  0.00     0.150 C 
ENDROOT
BRANCH   1   6
ATOM      6  C   UNL     1      -4.002  -1.145   0.457  1.00  0.00     0.190 C 
BRANCH   6   7
ATOM      7  O   UNL     1      -5.204  -0.828  -0.241  1.00  0.00    -0.394 OA
ATOM      8  H   UNL     1      -5.833  -0.478   0.417  1.00  0.00     0.210 HD
ENDBRANCH   6   7
ENDBRANCH   1   6
BRANCH   5   9
ATOM      9  O   UNL     1      -3.697   1.466  -1.340  1.00  0.00    -0.390 OA
ATOM     10  H   UNL     1      -4.458   0.870  -1.497  1.00  0.00     0.211 HD
ENDBRANCH   5   9
BRANCH   3  11
ATOM     11  N   UNL     1       0.205  -0.222   0.268  1.00  0.00    -0.288 N 
ATOM     12  C   UNL     1       0.151  -1.570   0.047  1.00  0.00     0.203 A 
ATOM     13  C   UNL     1       1.471   0.217  -0.061  1.00  0.00     0.162 A 
ATOM     14  N   UNL     1       1.283  -2.034  -0.431  1.00  0.00    -0.236 NA
ATOM     15  C   UNL     1       2.108  -0.929  -0.502  1.00  0.00     0.115 A 
BRANCH  13  16
ATOM     16  N   UNL     1       1.808   1.522   0.073  1.00  0.00    -0.219 NA
ATOM     17  C   UNL     1       3.022   1.907  -0.135  1.00  0.00     0.194 C 
ATOM     18  N   UNL     1       4.198   1.277  -0.466  1.00  0.00    -0.373 N 
ATOM     19  H   UNL     1       5.030   1.851  -0.362  1.00  0.00     0.161 HD
BRANCH  18  20
ATOM     20  C   UNL     1       4.455  -0.140  -0.226  1.00  0.00     0.152 CG0
ATOM     21  G   UNL     1       3.504  -1.064  -0.998  1.00  0.00     0.000 G0
ENDBRANCH  18  20
ENDBRANCH  13  16
BRANCH  15  22
ATOM     22  C   UNL     1       3.504  -1.064  -0.998  1.00  0.00     0.186 CG0
ATOM     23  G   UNL     1       4.455  -0.140  -0.226  1.00  0.00     0.000 G0
BRANCH  22  24
ATOM     24  O   UNL     1       3.963  -2.420  -0.870  1.00  0.00    -0.385 OA
ATOM     25  H   UNL     1       3.136  -2.946  -0.835  1.00  0.00     0.211 HD
ENDBRANCH  22  24
ENDBRANCH  15  22
ENDBRANCH   3  11
TORSDOF 5
