REMARK SMILES CCOC(=O)[C@H](CCc1ccccc1)N[C@@H](C)C(=O)N1Cc2ccccc2C[C@H]1C(=O)O
REMARK SMILES IDX 16 1 17 2 15 3 6 5 4 6 5 7 3 8 2 9 1 10 7 11 8 12 9 13 10 14
REMARK SMILES IDX 14 15 11 16 13 17 12 18 18 19 19 20 20 21 21 22 29 23 22 24
REMARK SMILES IDX 28 25 23 26 27 27 24 28 26 29 25 30 30 31 31 32 32 33
REMARK H PARENT 15 4 32 34
REMARK Flexibility Score: inf
ROOT
ATOM      1  C   UNL     1       0.390  -0.492   0.446  1.00  0.00     0.141 C 
ATOM      2  C   UNL     1       0.118  -1.611  -0.556  1.00  0.00     0.035 C 
ENDROOT
BRANCH   1   3
ATOM      3  N   UNL     1      -0.867   0.156   0.927  1.00  0.00    -0.293 NA
ATOM      4  H   UNL     1      -0.576   0.964   1.493  1.00  0.00     0.124 HD
BRANCH   3   5
ATOM      5  C   UNL     1      -1.738   0.703  -0.155  1.00  0.00     0.165 C 
BRANCH   5   6
ATOM      6  C   UNL     1      -2.179   2.156   0.134  1.00  0.00     0.323 C 
ATOM      7  O   UNL     1      -3.038   2.746  -0.514  1.00  0.00    -0.250 OA
BRANCH   6   8
ATOM      8  O   UNL     1      -1.503   2.692   1.193  1.00  0.00    -0.465 OA
BRANCH   8   9
ATOM      9  C   UNL     1      -1.808   4.060   1.499  1.00  0.00     0.229 C 
ATOM     10  C   UNL     1      -2.995   4.130   2.441  1.00  0.00     0.049 C 
ENDBRANCH   8   9
ENDBRANCH   6   8
ENDBRANCH   5   6
BRANCH   5  11
ATOM     11  C   UNL     1      -2.988  -0.176  -0.348  1.00  0.00     0.036 C 
BRANCH  11  12
ATOM     12  C   UNL     1      -3.894  -0.268   0.889  1.00  0.00     0.038 C 
BRANCH  12  13
ATOM     13  C   UNL     1      -5.067  -1.193   0.653  1.00  0.00    -0.048 A 
ATOM     14  C   UNL     1      -5.140  -2.427   1.312  1.00  0.00     0.004 A 
ATOM     15  C   UNL     1      -6.089  -0.839  -0.243  1.00  0.00     0.004 A 
ATOM     16  C   UNL     1      -6.219  -3.286   1.082  1.00  0.00     0.000 A 
ATOM     17  C   UNL     1      -7.159  -1.705  -0.480  1.00  0.00     0.000 A 
ATOM     18  C   UNL     1      -7.220  -2.931   0.179  1.00  0.00     0.000 A 
ENDBRANCH  12  13
ENDBRANCH  11  12
ENDBRANCH   5  11
ENDBRANCH   3   5
ENDBRANCH   1   3
BRANCH   1  19
ATOM     19  C   UNL     1       1.403   0.581  -0.074  1.00  0.00     0.240 C 
ATOM     20  O   UNL     1       1.022   1.737  -0.308  1.00  0.00    -0.273 OA
BRANCH  19  21
ATOM     21  N   UNL     1       2.748   0.245  -0.212  1.00  0.00    -0.323 N 
ATOM     22  C   UNL     1       3.260  -1.121  -0.136  1.00  0.00     0.156 C 
ATOM     23  C   UNL     1       3.627   1.240  -0.864  1.00  0.00     0.199 C 
ATOM     24  C   UNL     1       4.764  -1.246  -0.045  1.00  0.00    -0.025 A 
ATOM     25  C   UNL     1       5.014   1.256  -0.215  1.00  0.00     0.073 C 
ATOM     26  C   UNL     1       5.335  -2.522   0.072  1.00  0.00     0.006 A 
ATOM     27  C   UNL     1       5.607  -0.124  -0.100  1.00  0.00    -0.040 A 
ATOM     28  C   UNL     1       6.721  -2.678   0.151  1.00  0.00     0.000 A 
ATOM     29  C   UNL     1       6.997  -0.288  -0.006  1.00  0.00     0.004 A 
ATOM     30  C   UNL     1       7.551  -1.560   0.117  1.00  0.00     0.000 A 
BRANCH  23  31
ATOM     31  C   UNL     1       3.698   0.988  -2.377  1.00  0.00     0.326 C 
ATOM     32  O   UNL     1       3.081   0.148  -3.017  1.00  0.00    -0.250 OA
BRANCH  31  33
ATOM     33  O   UNL     1       4.522   1.844  -3.022  1.00  0.00    -0.480 OA
ATOM     34  H   UNL     1       4.460   1.561  -3.959  1.00  0.00     0.296 HD
ENDBRANCH  31  33
ENDBRANCH  23  31
ENDBRANCH  19  21
ENDBRANCH   1  19
TORSDOF 12
