REMARK SMILES C=CCN1C[C@H](C(=O)N(CCCN(C)C)C(=O)NCC)C[C@@H]2c3cccc4[nH]cc(c34)C[C@H]21
REMARK SMILES IDX 9 1 7 2 8 3 6 4 4 5 5 6 33 7 22 8 32 9 21 10 23 11 30 12
REMARK SMILES IDX 24 13 31 14 29 15 25 16 27 17 28 18 26 19 3 21 2 22 1 23
REMARK SMILES IDX 10 24 11 25 12 26 13 27 14 28 15 29 16 30 17 31 18 32 19 34
REMARK SMILES IDX 20 35
REMARK H PARENT 28 20 18 33
REMARK Flexibility Score: inf
ROOT
ATOM      1  N   UNL     1       2.203   1.622   0.792  1.00  0.00    -0.264 N 
ENDROOT
BRANCH   1   2
ATOM      2  C   UNL     1       0.872   1.927   1.080  1.00  0.00     0.235 C 
ATOM      3  O   UNL     1       0.493   3.091   1.255  1.00  0.00    -0.274 OA
BRANCH   2   4
ATOM      4  C   UNL     1      -0.139   0.780   1.107  1.00  0.00     0.094 C 
ATOM      5  N   UNL     1      -2.298   0.020   2.089  1.00  0.00    -0.295 NA
ATOM      6  C   UNL     1      -1.306   1.121   2.037  1.00  0.00     0.098 C 
ATOM      7  C   UNL     1      -2.881  -0.196   0.723  1.00  0.00     0.069 C 
ATOM      8  C   UNL     1      -1.724  -0.553  -0.320  1.00  0.00     0.038 C 
ATOM      9  C   UNL     1      -4.039  -1.272   0.694  1.00  0.00     0.057 C 
ATOM     10  C   UNL     1      -0.654   0.546  -0.313  1.00  0.00     0.025 C 
ATOM     11  C   UNL     1      -2.283  -0.824  -1.706  1.00  0.00    -0.034 A 
ATOM     12  C   UNL     1      -4.480  -1.547  -0.704  1.00  0.00    -0.021 A 
ATOM     13  C   UNL     1      -1.604  -0.716  -2.928  1.00  0.00     0.005 A 
ATOM     14  C   UNL     1      -3.594  -1.310  -1.772  1.00  0.00     0.006 A 
ATOM     15  C   UNL     1      -5.650  -2.019  -1.252  1.00  0.00     0.087 A 
ATOM     16  C   UNL     1      -2.235  -1.044  -4.139  1.00  0.00     0.002 A 
ATOM     17  C   UNL     1      -4.216  -1.637  -2.961  1.00  0.00     0.046 A 
ATOM     18  N   UNL     1      -5.480  -2.067  -2.621  1.00  0.00    -0.361 N 
ATOM     19  C   UNL     1      -3.560  -1.508  -4.185  1.00  0.00     0.027 A 
ATOM     20  H   UNL     1      -6.177  -2.379  -3.282  1.00  0.00     0.166 HD
BRANCH   5  21
ATOM     21  C   UNL     1      -3.332   0.328   3.096  1.00  0.00     0.111 C 
BRANCH  21  22
ATOM     22  C   UNL     1      -2.780   0.346   4.495  1.00  0.00    -0.019 C 
ATOM     23  C   UNL     1      -2.893   1.376   5.345  1.00  0.00     0.005 C 
ENDBRANCH  21  22
ENDBRANCH   5  21
ENDBRANCH   2   4
ENDBRANCH   1   2
BRANCH   1  24
ATOM     24  C   UNL     1       2.814   0.362   1.230  1.00  0.00     0.132 C 
BRANCH  24  25
ATOM     25  C   UNL     1       2.892  -0.689   0.119  1.00  0.00     0.038 C 
BRANCH  25  26
ATOM     26  C   UNL     1       3.643  -1.934   0.605  1.00  0.00     0.085 C 
BRANCH  26  27
ATOM     27  N   UNL     1       3.617  -3.030  -0.379  1.00  0.00    -0.309 NA
ATOM     28  C   UNL     1       4.435  -2.728  -1.558  1.00  0.00     0.104 C 
ATOM     29  C   UNL     1       4.092  -4.271   0.240  1.00  0.00     0.104 C 
ENDBRANCH  26  27
ENDBRANCH  25  26
ENDBRANCH  24  25
ENDBRANCH   1  24
BRANCH   1  30
ATOM     30  C   UNL     1       3.067   2.506   0.128  1.00  0.00     0.324 C 
ATOM     31  O   UNL     1       4.250   2.244  -0.090  1.00  0.00    -0.248 OA
ATOM     32  N   UNL     1       2.495   3.675  -0.308  1.00  0.00    -0.338 N 
ATOM     33  H   UNL     1       1.651   3.957   0.190  1.00  0.00     0.165 HD
BRANCH  32  34
ATOM     34  C   UNL     1       3.269   4.718  -0.945  1.00  0.00     0.114 C 
ATOM     35  C   UNL     1       3.511   4.426  -2.415  1.00  0.00     0.027 C 
ENDBRANCH  32  34
ENDBRANCH   1  30
TORSDOF 10
