REMARK SMILES NCCc1cc[nH]n1
REMARK SMILES IDX 2 1 1 2 3 5 4 6 5 7 8 8 6 9 7 10
REMARK H PARENT 1 3 1 4 7 11
REMARK Flexibility Score: inf
ROOT
ATOM      1  C   UNL     1       1.643   0.324   0.460  1.00  0.00     0.084 C 
ENDROOT
BRANCH   1   2
ATOM      2  N   UNL     1       3.044  -0.110   0.467  1.00  0.00    -0.330 NA
ATOM      3  H   UNL     1       3.398  -0.108  -0.489  1.00  0.00     0.118 HD
ATOM      4  H   UNL     1       3.599   0.582   0.971  1.00  0.00     0.118 HD
ENDBRANCH   1   2
BRANCH   1   5
ATOM      5  C   UNL     1       0.756  -0.642  -0.331  1.00  0.00     0.073 C 
BRANCH   5   6
ATOM      6  C   UNL     1      -0.677  -0.224  -0.315  1.00  0.00     0.063 A 
ATOM      7  C   UNL     1      -1.717  -0.721   0.505  1.00  0.00     0.045 A 
ATOM      8  N   UNL     1      -1.118   0.732  -1.144  1.00  0.00    -0.181 NA
ATOM      9  C   UNL     1      -2.833  -0.014   0.129  1.00  0.00     0.105 A 
ATOM     10  N   UNL     1      -2.425   0.835  -0.857  1.00  0.00    -0.285 N 
ATOM     11  H   UNL     1      -2.980   1.508  -1.375  1.00  0.00     0.189 HD
ENDBRANCH   5   6
ENDBRANCH   1   5
TORSDOF 3
