REMARK SMILES CC(C)Oc1ccc(-c2nc(-c3cccc4c3CC[C@@H]4NCCO)no2)cc1C#N
REMARK SMILES IDX 12 1 13 2 14 3 15 4 16 5 17 6 18 7 19 8 20 9 11 10 9 11
REMARK SMILES IDX 10 12 26 13 25 14 8 15 5 16 6 17 28 18 7 19 27 20 4 21 2 22
REMARK SMILES IDX 1 23 3 24 29 25 30 26 21 27 22 29 23 30 24 31
REMARK H PARENT 21 28 24 32
REMARK Flexibility Score: inf
ROOT
ATOM      1  C   UNL     1      -1.977  -0.060   0.544  1.00  0.00     0.026 A 
ATOM      2  C   UNL     1      -1.985   0.989   1.483  1.00  0.00     0.012 A 
ATOM      3  C   UNL     1      -3.183   1.502   2.007  1.00  0.00     0.001 A 
ATOM      4  C   UNL     1      -4.410   0.986   1.597  1.00  0.00     0.005 A 
ATOM      5  C   UNL     1      -4.418  -0.045   0.669  1.00  0.00    -0.027 A 
ATOM      6  C   UNL     1      -3.215  -0.583   0.167  1.00  0.00    -0.032 A 
ATOM      7  C   UNL     1      -3.527  -1.709  -0.779  1.00  0.00     0.038 C 
ATOM      8  C   UNL     1      -4.965  -2.055  -0.367  1.00  0.00     0.028 C 
ATOM      9  C   UNL     1      -5.623  -0.731   0.075  1.00  0.00     0.084 C 
ENDROOT
BRANCH   1  10
ATOM     10  C   UNL     1      -0.699  -0.539   0.021  1.00  0.00     0.203 A 
ATOM     11  C   UNL     1       1.388  -0.761  -0.178  1.00  0.00     0.258 A 
ATOM     12  N   UNL     1       0.506  -0.131   0.563  1.00  0.00    -0.187 NA
ATOM     13  O   UNL     1       0.816  -1.530  -1.147  1.00  0.00    -0.334 OA
ATOM     14  N   UNL     1      -0.560  -1.380  -1.016  1.00  0.00    -0.057 NA
BRANCH  11  15
ATOM     15  C   UNL     1       2.845  -0.744  -0.106  1.00  0.00     0.041 A 
ATOM     16  C   UNL     1       5.651  -0.649   0.073  1.00  0.00     0.137 A 
ATOM     17  C   UNL     1       5.037  -1.446  -0.893  1.00  0.00     0.048 A 
ATOM     18  C   UNL     1       4.876   0.074   0.985  1.00  0.00     0.095 A 
ATOM     19  C   UNL     1       3.643  -1.485  -0.989  1.00  0.00     0.018 A 
ATOM     20  C   UNL     1       3.477   0.030   0.882  1.00  0.00     0.037 A 
BRANCH  16  21
ATOM     21  O   UNL     1       7.019  -0.685   0.144  1.00  0.00    -0.490 OA
BRANCH  21  22
ATOM     22  C   UNL     1       7.637   0.446  -0.499  1.00  0.00     0.167 C 
ATOM     23  C   UNL     1       8.855   0.830   0.334  1.00  0.00     0.052 C 
ATOM     24  C   UNL     1       8.068   0.052  -1.910  1.00  0.00     0.052 C 
ENDBRANCH  21  22
ENDBRANCH  16  21
BRANCH  18  25
ATOM     25  C   UNL     1       5.474   0.853   2.028  1.00  0.00     0.103 C 
ATOM     26  N   UNL     1       5.932   1.508   2.870  1.00  0.00    -0.192 NA
ENDBRANCH  18  25
ENDBRANCH  11  15
ENDBRANCH   1  10
BRANCH   9  27
ATOM     27  N   UNL     1      -6.170  -0.051  -1.101  1.00  0.00    -0.308 NA
ATOM     28  H   UNL     1      -6.824  -0.676  -1.573  1.00  0.00     0.123 HD
BRANCH  27  29
ATOM     29  C   UNL     1      -6.840   1.222  -0.835  1.00  0.00     0.109 C 
BRANCH  29  30
ATOM     30  C   UNL     1      -8.075   1.146   0.073  1.00  0.00     0.171 C 
BRANCH  30  31
ATOM     31  O   UNL     1      -8.731   2.408   0.134  1.00  0.00    -0.395 OA
ATOM     32  H   UNL     1      -8.085   3.061   0.454  1.00  0.00     0.210 HD
ENDBRANCH  30  31
ENDBRANCH  29  30
ENDBRANCH  27  29
ENDBRANCH   9  27
TORSDOF 9
