REMARK SMILES CN1C(=O)[C@@H](NC(=O)c2nnc(Cc3ccccc3)[nH]2)COc2cccnc21
REMARK SMILES IDX 21 1 22 2 23 3 28 4 27 5 26 6 24 7 25 8 2 9 1 10 3 11 4 12
REMARK SMILES IDX 5 14 6 16 7 17 8 19 9 20 10 21 20 22 11 23 12 24 13 26 14 27
REMARK SMILES IDX 15 28 19 29 16 30 18 31 17 32
REMARK H PARENT 6 18 20 25
REMARK Flexibility Score: 70.00
ROOT
ATOM      1  C   UNL     1      -2.621  -0.363  -1.076  1.00  0.00     0.264 C 
ENDROOT
BRANCH   1   2
ATOM      2  O   UNL     1      -3.901   0.242  -1.151  1.00  0.00    -0.487 OA
BRANCH   2   3
ATOM      3  C   UNL     1      -4.598   0.385   0.013  1.00  0.00     0.162 A 
ATOM      4  C   UNL     1      -4.192   0.246   1.347  1.00  0.00     0.177 A 
ATOM      5  N   UNL     1      -5.113   0.359   2.349  1.00  0.00    -0.235 NA
ATOM      6  C   UNL     1      -6.398   0.652   2.058  1.00  0.00     0.114 A 
ATOM      7  C   UNL     1      -5.941   0.703  -0.251  1.00  0.00     0.052 A 
ATOM      8  C   UNL     1      -6.858   0.842   0.778  1.00  0.00     0.024 A 
BRANCH   4   9
ATOM      9  N   UNL     1      -2.860  -0.008   1.820  1.00  0.00    -0.295 N 
ATOM     10  C   UNL     1      -2.760  -0.327   3.247  1.00  0.00     0.155 C 
BRANCH   9  11
ATOM     11  C   UNL     1      -1.671   0.114   1.125  1.00  0.00     0.254 CG0
ATOM     12  O   UNL     1      -0.569  -0.093   1.659  1.00  0.00    -0.272 OA
ATOM     13  G   UNL     1      -1.680   0.557  -0.330  1.00  0.00     0.000 G0
ENDBRANCH   9  11
ENDBRANCH   4   9
ENDBRANCH   2   3
ENDBRANCH   1   2
BRANCH   1  14
ATOM     14  C   UNL     1      -1.680   0.557  -0.330  1.00  0.00     0.210 CG0
ATOM     15  G   UNL     1      -1.671   0.114   1.125  1.00  0.00     0.000 G0
BRANCH  14  16
ATOM     16  N   UNL     1      -0.294   0.469  -0.807  1.00  0.00    -0.334 N 
ATOM     17  C   UNL     1       0.095   1.082  -1.984  1.00  0.00     0.289 C 
ATOM     18  H   UNL     1       0.387   0.309  -0.071  1.00  0.00     0.164 HD
ATOM     19  O   UNL     1      -0.746   1.586  -2.724  1.00  0.00    -0.266 OA
BRANCH  17  20
ATOM     20  C   UNL     1       1.520   1.079  -2.244  1.00  0.00     0.219 A 
ATOM     21  N   UNL     1       2.103   1.782  -3.197  1.00  0.00    -0.125 NA
ATOM     22  N   UNL     1       2.491   0.362  -1.594  1.00  0.00    -0.321 N 
ATOM     23  N   UNL     1       3.457   1.541  -3.152  1.00  0.00    -0.135 NA
ATOM     24  C   UNL     1       3.687   0.685  -2.180  1.00  0.00     0.135 A 
ATOM     25  H   UNL     1       2.358  -0.289  -0.833  1.00  0.00     0.170 HD
BRANCH  24  26
ATOM     26  C   UNL     1       5.009   0.125  -1.775  1.00  0.00     0.112 C 
BRANCH  26  27
ATOM     27  C   UNL     1       5.006  -0.529  -0.410  1.00  0.00    -0.040 A 
ATOM     28  C   UNL     1       5.075   0.255   0.751  1.00  0.00     0.004 A 
ATOM     29  C   UNL     1       4.882  -1.920  -0.287  1.00  0.00     0.004 A 
ATOM     30  C   UNL     1       5.024  -0.343   2.011  1.00  0.00     0.000 A 
ATOM     31  C   UNL     1       4.832  -2.515   0.974  1.00  0.00     0.000 A 
ATOM     32  C   UNL     1       4.901  -1.727   2.122  1.00  0.00     0.000 A 
ENDBRANCH  26  27
ENDBRANCH  24  26
ENDBRANCH  17  20
ENDBRANCH  14  16
ENDBRANCH   1  14
TORSDOF 4
