REMARK SMILES CCc1ccc(CCOc2ccc(CC3SC(=O)NC3=O)cc2)nc1
REMARK SMILES IDX 8 1 7 2 6 3 3 4 4 5 25 6 5 7 24 8 2 9 1 10 9 11 10 12 11 13
REMARK SMILES IDX 23 14 12 15 22 16 13 17 14 18 15 19 16 20 20 21 17 22 19 23
REMARK SMILES IDX 21 24 18 25
REMARK H PARENT 19 26
REMARK Flexibility Score: inf
ROOT
ATOM      1  C   UNL     1       1.016  -0.959  -0.279  1.00  0.00     0.236 C 
ENDROOT
BRANCH   1   2
ATOM      2  C   UNL     1       2.311  -1.601  -0.771  1.00  0.00     0.097 C 
BRANCH   2   3
ATOM      3  C   UNL     1       3.532  -0.806  -0.390  1.00  0.00     0.044 A 
ATOM      4  C   UNL     1       5.768   0.691   0.226  1.00  0.00    -0.030 A 
ATOM      5  C   UNL     1       5.804  -0.695   0.377  1.00  0.00     0.007 A 
ATOM      6  C   UNL     1       4.589   1.249  -0.250  1.00  0.00     0.115 A 
ATOM      7  C   UNL     1       4.678  -1.453   0.062  1.00  0.00     0.024 A 
ATOM      8  N   UNL     1       3.481   0.537  -0.559  1.00  0.00    -0.261 NA
BRANCH   4   9
ATOM      9  C   UNL     1       6.965   1.545   0.534  1.00  0.00     0.034 C 
ATOM     10  C   UNL     1       7.891   1.679  -0.667  1.00  0.00     0.009 C 
ENDBRANCH   4   9
ENDBRANCH   2   3
ENDBRANCH   1   2
BRANCH   1  11
ATOM     11  O   UNL     1      -0.062  -1.846  -0.598  1.00  0.00    -0.493 OA
BRANCH  11  12
ATOM     12  C   UNL     1      -1.318  -1.452  -0.228  1.00  0.00     0.119 A 
ATOM     13  C   UNL     1      -2.338  -2.329  -0.603  1.00  0.00     0.047 A 
ATOM     14  C   UNL     1      -1.644  -0.289   0.469  1.00  0.00     0.047 A 
ATOM     15  C   UNL     1      -3.670  -2.051  -0.288  1.00  0.00     0.007 A 
ATOM     16  C   UNL     1      -2.977  -0.010   0.791  1.00  0.00     0.007 A 
ATOM     17  C   UNL     1      -4.002  -0.887   0.417  1.00  0.00    -0.046 A 
BRANCH  17  18
ATOM     18  C   UNL     1      -5.448  -0.577   0.739  1.00  0.00     0.060 C 
BRANCH  18  19
ATOM     19  C   UNL     1      -6.121   0.230  -0.374  1.00  0.00     0.150 C 
ATOM     20  S   UNL     1      -7.906  -0.159  -0.499  1.00  0.00    -0.051 SA
ATOM     21  C   UNL     1      -6.091   1.725  -0.109  1.00  0.00     0.241 C 
ATOM     22  C   UNL     1      -8.374   1.521  -0.484  1.00  0.00     0.286 C 
ATOM     23  N   UNL     1      -7.282   2.315  -0.412  1.00  0.00    -0.286 N 
ATOM     24  O   UNL     1      -5.139   2.359   0.327  1.00  0.00    -0.273 OA
ATOM     25  O   UNL     1      -9.530   1.905  -0.486  1.00  0.00    -0.261 OA
ATOM     26  H   UNL     1      -7.410   3.299  -0.231  1.00  0.00     0.173 HD
ENDBRANCH  18  19
ENDBRANCH  17  18
ENDBRANCH  11  12
ENDBRANCH   1  11
TORSDOF 7
