REMARK SMILES CN(C)CCOC(c1ccccc1)c1ccc(Br)cc1
REMARK SMILES IDX 5 1 4 2 2 3 1 4 3 5 6 6 7 7 8 8 9 9 13 10 10 11 12 12 11 13
REMARK SMILES IDX 14 14 15 15 20 16 16 17 19 18 17 19 18 20
REMARK H PARENT
REMARK Flexibility Score: inf
ROOT
ATOM      1  C   UNL     1       1.538  -0.182  -0.515  1.00  0.00     0.177 C 
ENDROOT
BRANCH   1   2
ATOM      2  C   UNL     1       2.797   0.382   0.161  1.00  0.00     0.112 C 
BRANCH   2   3
ATOM      3  N   UNL     1       4.044  -0.311  -0.215  1.00  0.00    -0.307 NA
ATOM      4  C   UNL     1       5.199   0.455   0.260  1.00  0.00     0.105 C 
ATOM      5  C   UNL     1       4.096  -1.668   0.333  1.00  0.00     0.105 C 
ENDBRANCH   2   3
ENDBRANCH   1   2
BRANCH   1   6
ATOM      6  O   UNL     1       0.419   0.630  -0.143  1.00  0.00    -0.367 OA
BRANCH   6   7
ATOM      7  C   UNL     1      -0.816   0.160  -0.705  1.00  0.00     0.178 C 
BRANCH   7   8
ATOM      8  C   UNL     1      -1.779   1.326  -0.898  1.00  0.00    -0.015 A 
ATOM      9  C   UNL     1      -2.848   1.205  -1.804  1.00  0.00     0.007 A 
ATOM     10  C   UNL     1      -1.650   2.524  -0.177  1.00  0.00     0.007 A 
ATOM     11  C   UNL     1      -3.752   2.254  -1.987  1.00  0.00     0.000 A 
ATOM     12  C   UNL     1      -2.554   3.572  -0.362  1.00  0.00     0.000 A 
ATOM     13  C   UNL     1      -3.604   3.437  -1.267  1.00  0.00     0.000 A 
ENDBRANCH   7   8
BRANCH   7  14
ATOM     14  C   UNL     1      -1.403  -0.929   0.183  1.00  0.00    -0.015 A 
ATOM     15  C   UNL     1      -1.854  -2.135  -0.377  1.00  0.00     0.008 A 
ATOM     16  C   UNL     1      -1.513  -0.747   1.572  1.00  0.00     0.008 A 
ATOM     17  C   UNL     1      -2.398  -3.136   0.433  1.00  0.00     0.016 A 
ATOM     18  C   UNL     1      -2.056  -1.746   2.383  1.00  0.00     0.016 A 
ATOM     19  C   UNL     1      -2.495  -2.936   1.808  1.00  0.00     0.017 A 
ATOM     20  Br  UNL     1      -3.230  -4.291   2.903  1.00  0.00    -0.051 Br
ENDBRANCH   7  14
ENDBRANCH   6   7
ENDBRANCH   1   6
TORSDOF 6
