REMARK SMILES CO[C@@]1(NC(=O)Cc2cccs2)C(=O)N2C(C(=O)O)=C(COC(N)=O)CS[C@@H]21
REMARK SMILES IDX 3 1 13 2 14 3 15 4 16 5 20 6 26 7 27 8 28 9 2 10 1 11 4 12
REMARK SMILES IDX 5 13 6 15 7 16 8 17 9 18 12 19 10 20 11 21 17 22 18 23 19 24
REMARK SMILES IDX 21 26 22 27 23 28 24 29 25 30
REMARK H PARENT 4 14 19 25 24 31 24 32
REMARK Flexibility Score: inf
ROOT
ATOM      1  C   UNL     1      -1.124   0.513  -0.507  1.00  0.00     0.252 C 
ATOM      2  C   UNL     1      -0.440  -0.763  -1.172  1.00  0.00     0.284 C 
ATOM      3  O   UNL     1      -0.794  -1.868  -1.522  1.00  0.00    -0.269 OA
ATOM      4  N   UNL     1       0.778  -0.169  -1.112  1.00  0.00    -0.283 N 
ATOM      5  C   UNL     1       2.025  -0.728  -1.148  1.00  0.00     0.134 C 
ATOM      6  C   UNL     1       3.033  -0.285  -0.362  1.00  0.00     0.008 C 
ATOM      7  C   UNL     1       2.823   0.728   0.743  1.00  0.00     0.109 C 
ATOM      8  S   UNL     1       1.119   0.712   1.381  1.00  0.00    -0.126 SA
ATOM      9  C   UNL     1       0.387   0.956  -0.277  1.00  0.00     0.212 C 
ENDROOT
BRANCH   1  10
ATOM     10  O   UNL     1      -1.855   1.323  -1.475  1.00  0.00    -0.348 OA
ATOM     11  C   UNL     1      -3.019   0.739  -2.046  1.00  0.00     0.198 C 
ENDBRANCH   1  10
BRANCH   1  12
ATOM     12  N   UNL     1      -1.902   0.204   0.722  1.00  0.00    -0.317 N 
ATOM     13  C   UNL     1      -2.328   1.195   1.578  1.00  0.00     0.227 C 
ATOM     14  H   UNL     1      -2.162  -0.758   0.918  1.00  0.00     0.167 HD
ATOM     15  O   UNL     1      -2.052   2.382   1.415  1.00  0.00    -0.275 OA
BRANCH  13  16
ATOM     16  C   UNL     1      -3.145   0.708   2.760  1.00  0.00     0.146 C 
BRANCH  16  17
ATOM     17  C   UNL     1      -4.441   0.128   2.275  1.00  0.00     0.014 A 
ATOM     18  C   UNL     1      -5.548   0.797   1.785  1.00  0.00     0.016 A 
ATOM     19  S   UNL     1      -4.682  -1.569   2.276  1.00  0.00    -0.148 S 
ATOM     20  C   UNL     1      -6.592  -0.093   1.398  1.00  0.00     0.012 A 
ATOM     21  C   UNL     1      -6.250  -1.408   1.612  1.00  0.00     0.065 A 
ENDBRANCH  16  17
ENDBRANCH  13  16
ENDBRANCH   1  12
BRANCH   5  22
ATOM     22  C   UNL     1       2.212  -1.847  -2.114  1.00  0.00     0.352 C 
ATOM     23  O   UNL     1       1.935  -1.827  -3.300  1.00  0.00    -0.245 OA
BRANCH  22  24
ATOM     24  O   UNL     1       2.691  -2.953  -1.518  1.00  0.00    -0.477 OA
ATOM     25  H   UNL     1       2.663  -3.618  -2.238  1.00  0.00     0.297 HD
ENDBRANCH  22  24
ENDBRANCH   5  22
BRANCH   6  26
ATOM     26  C   UNL     1       4.457  -0.787  -0.471  1.00  0.00     0.269 C 
BRANCH  26  27
ATOM     27  O   UNL     1       5.338   0.347  -0.450  1.00  0.00    -0.445 OA
BRANCH  27  28
ATOM     28  C   UNL     1       6.608   0.061  -0.812  1.00  0.00     0.404 C 
ATOM     29  N   UNL     1       7.372   1.173  -0.733  1.00  0.00    -0.335 N 
ATOM     30  O   UNL     1       7.033  -1.025  -1.171  1.00  0.00    -0.225 OA
ATOM     31  H   UNL     1       6.933   2.067  -0.568  1.00  0.00     0.163 HD
ATOM     32  H   UNL     1       8.302   1.135  -1.125  1.00  0.00     0.163 HD
ENDBRANCH  27  28
ENDBRANCH  26  27
ENDBRANCH   6  26
TORSDOF 9
