REMARK SMILES NC(=O)c1cn(Cc2c(F)cccc2F)nn1
REMARK SMILES IDX 4 1 5 2 6 3 16 4 17 5 2 6 1 7 3 10 7 11 8 12 9 13 14 14
REMARK SMILES IDX 10 15 11 16 13 17 15 18 12 19
REMARK H PARENT 1 8 1 9
REMARK Flexibility Score: inf
ROOT
ATOM      1  C   UNL     1       2.616  -0.498   0.309  1.00  0.00     0.170 A 
ATOM      2  C   UNL     1       1.403  -1.102   0.567  1.00  0.00     0.145 A 
ATOM      3  N   UNL     1       0.654  -0.116   1.136  1.00  0.00    -0.247 N 
ATOM      4  N   UNL     1       1.356   1.028   1.250  1.00  0.00    -0.066 NA
ATOM      5  N   UNL     1       2.560   0.809   0.738  1.00  0.00    -0.125 NA
ENDROOT
BRANCH   1   6
ATOM      6  C   UNL     1       3.789  -1.092  -0.306  1.00  0.00     0.270 C 
ATOM      7  N   UNL     1       4.852  -0.244  -0.437  1.00  0.00    -0.364 N 
ATOM      8  H   UNL     1       4.789   0.716  -0.122  1.00  0.00     0.160 HD
ATOM      9  H   UNL     1       5.702  -0.588  -0.858  1.00  0.00     0.160 HD
ATOM     10  O   UNL     1       3.849  -2.257  -0.686  1.00  0.00    -0.268 OA
ENDBRANCH   1   6
BRANCH   3  11
ATOM     11  C   UNL     1      -0.706  -0.203   1.636  1.00  0.00     0.187 C 
BRANCH  11  12
ATOM     12  C   UNL     1      -1.700   0.173   0.580  1.00  0.00     0.045 A 
ATOM     13  C   UNL     1      -2.114  -0.752  -0.379  1.00  0.00     0.131 A 
ATOM     14  C   UNL     1      -2.218   1.465   0.504  1.00  0.00     0.131 A 
ATOM     15  F   UNL     1      -1.640  -2.005  -0.339  1.00  0.00    -0.207 F 
ATOM     16  C   UNL     1      -3.017  -0.407  -1.383  1.00  0.00     0.040 A 
ATOM     17  C   UNL     1      -3.123   1.829  -0.492  1.00  0.00     0.040 A 
ATOM     18  F   UNL     1      -1.856   2.382   1.411  1.00  0.00    -0.207 F 
ATOM     19  C   UNL     1      -3.525   0.890  -1.441  1.00  0.00     0.006 A 
ENDBRANCH  11  12
ENDBRANCH   3  11
TORSDOF 3
