REMARK SMILES COc1ccc2cc([C@H](C)C(=O)O)ccc2c1
REMARK SMILES IDX 9 1 10 2 8 3 3 4 4 5 17 6 5 7 16 8 6 9 15 10 7 11 14 12 2 13
REMARK SMILES IDX 1 14 11 15 12 16 13 17
REMARK H PARENT 13 18
REMARK Flexibility Score: inf
ROOT
ATOM      1  C   UNL     1      -3.222  -0.049  -0.446  1.00  0.00     0.126 C 
ATOM      2  C   UNL     1      -3.657   1.326  -0.953  1.00  0.00     0.025 C 
ENDROOT
BRANCH   1   3
ATOM      3  C   UNL     1      -1.707  -0.193  -0.434  1.00  0.00    -0.033 A 
ATOM      4  C   UNL     1       3.316   0.231   0.310  1.00  0.00     0.119 A 
ATOM      5  C   UNL     1       2.711   1.205   1.104  1.00  0.00     0.047 A 
ATOM      6  C   UNL     1       2.516  -0.605  -0.471  1.00  0.00     0.055 A 
ATOM      7  C   UNL     1       1.322   1.348   1.122  1.00  0.00     0.012 A 
ATOM      8  C   UNL     1       1.114  -0.475  -0.464  1.00  0.00    -0.015 A 
ATOM      9  C   UNL     1       0.510   0.514   0.341  1.00  0.00    -0.018 A 
ATOM     10  C   UNL     1       0.297  -1.311  -1.241  1.00  0.00     0.009 A 
ATOM     11  C   UNL     1      -0.890   0.644   0.345  1.00  0.00     0.013 A 
ATOM     12  C   UNL     1      -1.093  -1.172  -1.226  1.00  0.00     0.005 A 
BRANCH   4  13
ATOM     13  O   UNL     1       4.681   0.201   0.386  1.00  0.00    -0.497 OA
ATOM     14  C   UNL     1       5.349  -0.781  -0.395  1.00  0.00     0.278 C 
ENDBRANCH   4  13
ENDBRANCH   1   3
BRANCH   1  15
ATOM     15  C   UNL     1      -3.866  -0.315   0.904  1.00  0.00     0.310 C 
ATOM     16  O   UNL     1      -3.399  -0.123   2.015  1.00  0.00    -0.252 OA
BRANCH  15  17
ATOM     17  O   UNL     1      -5.130  -0.781   0.784  1.00  0.00    -0.481 OA
ATOM     18  H   UNL     1      -5.423  -0.895   1.712  1.00  0.00     0.296 HD
ENDBRANCH  15  17
ENDBRANCH   1  15
TORSDOF 4
