REMARK SMILES Cc1ccc2c(Nc3cccc(Cl)c3F)nccc2c1NC(=O)c1csc2c(N)ncnc12
REMARK SMILES IDX 1 1 2 2 20 3 19 4 18 5 17 6 16 7 6 8 5 9 4 10 3 11 21 12
REMARK SMILES IDX 22 13 23 15 24 16 25 17 33 18 26 19 27 20 32 21 28 22 31 23
REMARK SMILES IDX 30 24 29 25 7 28 8 30 9 31 14 32 10 33 12 34 15 35 11 36
REMARK SMILES IDX 13 37
REMARK H PARENT 21 14 29 26 29 27 7 29
REMARK Flexibility Score: inf
ROOT
ATOM      1  C   UNL     1       1.956  -2.856  -0.499  1.00  0.00     0.046 C 
ATOM      2  C   UNL     1       0.697  -2.047  -0.318  1.00  0.00    -0.027 A 
ATOM      3  C   UNL     1       0.708  -0.640  -0.174  1.00  0.00     0.052 A 
ATOM      4  C   UNL     1      -0.515   0.075   0.049  1.00  0.00     0.011 A 
ATOM      5  C   UNL     1      -0.584   1.439   0.391  1.00  0.00     0.031 A 
ATOM      6  C   UNL     1      -1.808   2.051   0.582  1.00  0.00     0.114 A 
ATOM      7  N   UNL     1      -2.984   1.415   0.478  1.00  0.00    -0.239 NA
ATOM      8  C   UNL     1      -2.961   0.097   0.185  1.00  0.00     0.138 A 
ATOM      9  C   UNL     1      -1.747  -0.625  -0.001  1.00  0.00     0.027 A 
ATOM     10  C   UNL     1      -1.720  -2.023  -0.196  1.00  0.00     0.013 A 
ATOM     11  C   UNL     1      -0.524  -2.722  -0.331  1.00  0.00     0.006 A 
ENDROOT
BRANCH   3  12
ATOM     12  N   UNL     1       1.980  -0.009  -0.224  1.00  0.00    -0.321 N 
ATOM     13  C   UNL     1       2.290   1.132  -0.945  1.00  0.00     0.258 C 
ATOM     14  H   UNL     1       2.785  -0.594  -0.018  1.00  0.00     0.170 HD
ATOM     15  O   UNL     1       1.489   1.812  -1.577  1.00  0.00    -0.269 OA
BRANCH  13  16
ATOM     16  C   UNL     1       3.717   1.479  -0.944  1.00  0.00     0.077 A 
ATOM     17  C   UNL     1       4.176   2.656  -1.510  1.00  0.00     0.081 A 
ATOM     18  C   UNL     1       4.813   0.714  -0.408  1.00  0.00     0.099 A 
ATOM     19  S   UNL     1       5.864   2.849  -1.382  1.00  0.00    -0.137 S 
ATOM     20  C   UNL     1       6.043   1.345  -0.572  1.00  0.00     0.096 A 
ATOM     21  N   UNL     1       4.697  -0.502   0.194  1.00  0.00    -0.234 NA
ATOM     22  C   UNL     1       7.198   0.722  -0.095  1.00  0.00     0.144 A 
ATOM     23  C   UNL     1       5.860  -1.015   0.615  1.00  0.00     0.224 A 
ATOM     24  N   UNL     1       7.081  -0.478   0.497  1.00  0.00    -0.218 NA
BRANCH  22  25
ATOM     25  N   UNL     1       8.470   1.260  -0.202  1.00  0.00    -0.382 N 
ATOM     26  H   UNL     1       8.606   1.932  -0.945  1.00  0.00     0.158 HD
ATOM     27  H   UNL     1       9.193   0.564  -0.068  1.00  0.00     0.158 HD
ENDBRANCH  22  25
ENDBRANCH  13  16
ENDBRANCH   3  12
BRANCH   8  28
ATOM     28  N   UNL     1      -4.196  -0.593   0.053  1.00  0.00    -0.337 N 
ATOM     29  H   UNL     1      -4.212  -1.063  -0.851  1.00  0.00     0.168 HD
BRANCH  28  30
ATOM     30  C   UNL     1      -5.495  -0.138   0.388  1.00  0.00     0.077 A 
ATOM     31  C   UNL     1      -5.745   0.717   1.469  1.00  0.00     0.029 A 
ATOM     32  C   UNL     1      -6.600  -0.652  -0.309  1.00  0.00     0.165 A 
ATOM     33  C   UNL     1      -7.051   1.090   1.806  1.00  0.00     0.004 A 
ATOM     34  C   UNL     1      -7.904  -0.286   0.023  1.00  0.00     0.078 A 
ATOM     35  F   UNL     1      -6.376  -1.510  -1.322  1.00  0.00    -0.203 F 
ATOM     36  C   UNL     1      -8.132   0.591   1.080  1.00  0.00     0.024 A 
ATOM     37  Cl  UNL     1      -9.244  -0.916  -0.858  1.00  0.00    -0.081 Cl
ENDBRANCH  28  30
ENDBRANCH   8  28
TORSDOF 5
