REMARK SMILES CCc1nn(CCCN2CCN(c3cccc(Cl)c3)CC2)c(=O)n1CCOc1ccccc1
REMARK SMILES IDX 3 1 4 2 5 3 22 4 23 5 24 6 2 7 1 8 25 9 26 10 27 11 28 12
REMARK SMILES IDX 29 13 33 14 30 15 32 16 31 17 6 18 7 19 8 20 9 21 10 22
REMARK SMILES IDX 21 23 11 24 20 25 12 26 13 27 14 28 19 29 15 30 17 31 16 32
REMARK SMILES IDX 18 33
REMARK H PARENT
REMARK Flexibility Score: inf
ROOT
ATOM      1  C   UNL     1      -2.740  -0.518   0.539  1.00  0.00     0.133 C 
ATOM      2  N   UNL     1      -1.810  -0.622   1.447  1.00  0.00    -0.155 NA
ATOM      3  N   UNL     1      -1.123   0.560   1.360  1.00  0.00    -0.213 N 
ATOM      4  C   UNL     1      -1.658   1.358   0.353  1.00  0.00     0.346 C 
ATOM      5  O   UNL     1      -1.293   2.471   0.006  1.00  0.00    -0.246 OA
ATOM      6  N   UNL     1      -2.696   0.627  -0.174  1.00  0.00    -0.275 N 
ENDROOT
BRANCH   1   7
ATOM      7  C   UNL     1      -3.730  -1.613   0.248  1.00  0.00     0.074 C 
ATOM      8  C   UNL     1      -4.095  -2.411   1.488  1.00  0.00     0.012 C 
ENDBRANCH   1   7
BRANCH   6   9
ATOM      9  C   UNL     1      -3.580   1.136  -1.210  1.00  0.00     0.170 C 
BRANCH   9  10
ATOM     10  C   UNL     1      -4.621   2.111  -0.647  1.00  0.00     0.251 C 
BRANCH  10  11
ATOM     11  O   UNL     1      -5.536   1.452   0.231  1.00  0.00    -0.492 OA
BRANCH  11  12
ATOM     12  C   UNL     1      -6.646   0.850  -0.291  1.00  0.00     0.119 A 
ATOM     13  C   UNL     1      -7.468   0.241   0.661  1.00  0.00     0.046 A 
ATOM     14  C   UNL     1      -7.000   0.779  -1.638  1.00  0.00     0.046 A 
ATOM     15  C   UNL     1      -8.630  -0.431   0.277  1.00  0.00     0.004 A 
ATOM     16  C   UNL     1      -8.164   0.106  -2.024  1.00  0.00     0.004 A 
ATOM     17  C   UNL     1      -8.979  -0.499  -1.068  1.00  0.00     0.000 A 
ENDBRANCH  11  12
ENDBRANCH  10  11
ENDBRANCH   9  10
ENDBRANCH   6   9
BRANCH   3  18
ATOM     18  C   UNL     1       0.015   0.866   2.191  1.00  0.00     0.151 C 
BRANCH  18  19
ATOM     19  C   UNL     1       1.351   0.559   1.513  1.00  0.00     0.039 C 
BRANCH  19  20
ATOM     20  C   UNL     1       1.549  -0.947   1.280  1.00  0.00     0.086 C 
BRANCH  20  21
ATOM     21  N   UNL     1       2.866  -1.355   0.777  1.00  0.00    -0.300 NA
ATOM     22  C   UNL     1       3.127  -0.943  -0.612  1.00  0.00     0.106 C 
ATOM     23  C   UNL     1       3.994  -1.055   1.675  1.00  0.00     0.106 C 
ATOM     24  C   UNL     1       4.609  -1.097  -1.028  1.00  0.00     0.132 C 
ATOM     25  C   UNL     1       4.983   0.026   1.178  1.00  0.00     0.132 C 
ATOM     26  N   UNL     1       5.485  -0.278  -0.172  1.00  0.00    -0.369 N 
BRANCH  26  27
ATOM     27  C   UNL     1       6.723   0.163  -0.608  1.00  0.00     0.038 A 
ATOM     28  C   UNL     1       7.379   1.247   0.002  1.00  0.00     0.026 A 
ATOM     29  C   UNL     1       7.392  -0.445  -1.683  1.00  0.00     0.046 A 
ATOM     30  C   UNL     1       8.632   1.699  -0.429  1.00  0.00     0.004 A 
ATOM     31  C   UNL     1       8.644   0.001  -2.116  1.00  0.00     0.043 A 
ATOM     32  C   UNL     1       9.268   1.072  -1.493  1.00  0.00     0.020 A 
ATOM     33  Cl  UNL     1       9.424  -0.790  -3.434  1.00  0.00    -0.084 Cl
ENDBRANCH  26  27
ENDBRANCH  20  21
ENDBRANCH  19  20
ENDBRANCH  18  19
ENDBRANCH   3  18
TORSDOF 10
