REMARK SMILES O=C(Nc1cccc2c(=O)cc(-c3nnn[nH]3)oc12)c1ccc(OCCCCc2ccccc2)cc1
REMARK SMILES IDX 25 1 24 2 23 3 20 4 21 5 36 6 22 7 35 8 2 9 1 10 3 11 4 13
REMARK SMILES IDX 5 14 19 15 6 16 8 17 18 18 7 19 9 20 12 21 10 22 11 23 13 24
REMARK SMILES IDX 14 25 17 26 15 27 16 28 26 30 27 31 28 32 29 33 30 34 34 35
REMARK SMILES IDX 31 36 33 37 32 38
REMARK H PARENT 3 12 17 29
REMARK Flexibility Score: inf
ROOT
ATOM      1  C   UNL     1      -3.405  -1.540  -1.206  1.00  0.00     0.229 C 
ENDROOT
BRANCH   1   2
ATOM      2  O   UNL     1      -2.920  -2.436  -0.207  1.00  0.00    -0.494 OA
BRANCH   2   3
ATOM      3  C   UNL     1      -1.573  -2.443   0.022  1.00  0.00     0.119 A 
ATOM      4  C   UNL     1       1.143  -2.609   0.726  1.00  0.00     0.040 A 
ATOM      5  C   UNL     1       0.181  -3.314   1.456  1.00  0.00     0.017 A 
ATOM      6  C   UNL     1       0.743  -1.846  -0.379  1.00  0.00     0.017 A 
ATOM      7  C   UNL     1      -1.168  -3.226   1.105  1.00  0.00     0.047 A 
ATOM      8  C   UNL     1      -0.611  -1.761  -0.726  1.00  0.00     0.047 A 
BRANCH   4   9
ATOM      9  C   UNL     1       2.573  -2.716   1.142  1.00  0.00     0.255 C 
ATOM     10  O   UNL     1       2.953  -3.752   1.674  1.00  0.00    -0.269 OA
ATOM     11  N   UNL     1       3.334  -1.588   0.907  1.00  0.00    -0.319 N 
ATOM     12  H   UNL     1       2.856  -0.763   0.560  1.00  0.00     0.170 HD
BRANCH  11  13
ATOM     13  C   UNL     1       4.710  -1.397   1.171  1.00  0.00     0.085 A 
ATOM     14  C   UNL     1       5.550  -2.386   1.689  1.00  0.00     0.030 A 
ATOM     15  C   UNL     1       5.252  -0.133   0.883  1.00  0.00     0.162 A 
ATOM     16  C   UNL     1       6.905  -2.118   1.923  1.00  0.00     0.003 A 
ATOM     17  C   UNL     1       6.600   0.129   1.117  1.00  0.00     0.067 A 
ATOM     18  O   UNL     1       4.401   0.815   0.364  1.00  0.00    -0.450 OA
ATOM     19  C   UNL     1       7.433  -0.860   1.639  1.00  0.00     0.016 A 
ATOM     20  C   UNL     1       7.123   1.463   0.797  1.00  0.00     0.193 C 
ATOM     21  C   UNL     1       4.898   2.067   0.045  1.00  0.00     0.177 C 
ATOM     22  O   UNL     1       8.289   1.780   0.986  1.00  0.00    -0.289 OA
ATOM     23  C   UNL     1       6.173   2.434   0.224  1.00  0.00     0.104 C 
BRANCH  21  24
ATOM     24  C   UNL     1       3.903   2.912  -0.510  1.00  0.00     0.215 A 
ATOM     25  N   UNL     1       2.671   2.637  -0.899  1.00  0.00    -0.105 NA
ATOM     26  N   UNL     1       4.094   4.253  -0.713  1.00  0.00    -0.236 N 
ATOM     27  N   UNL     1       2.128   3.814  -1.351  1.00  0.00    -0.023 NA
ATOM     28  N   UNL     1       2.995   4.807  -1.239  1.00  0.00    -0.047 NA
ATOM     29  H   UNL     1       4.896   4.841  -0.525  1.00  0.00     0.194 HD
ENDBRANCH  21  24
ENDBRANCH  11  13
ENDBRANCH   4   9
ENDBRANCH   2   3
ENDBRANCH   1   2
BRANCH   1  30
ATOM     30  C   UNL     1      -4.932  -1.577  -1.211  1.00  0.00     0.042 C 
BRANCH  30  31
ATOM     31  C   UNL     1      -5.586  -1.279   0.146  1.00  0.00     0.008 C 
BRANCH  31  32
ATOM     32  C   UNL     1      -5.204   0.063   0.781  1.00  0.00     0.035 C 
BRANCH  32  33
ATOM     33  C   UNL     1      -5.538   1.271  -0.060  1.00  0.00    -0.048 A 
ATOM     34  C   UNL     1      -4.524   2.140  -0.486  1.00  0.00     0.004 A 
ATOM     35  C   UNL     1      -6.864   1.556  -0.414  1.00  0.00     0.004 A 
ATOM     36  C   UNL     1      -4.827   3.259  -1.264  1.00  0.00     0.000 A 
ATOM     37  C   UNL     1      -7.166   2.675  -1.192  1.00  0.00     0.000 A 
ATOM     38  C   UNL     1      -6.147   3.524  -1.619  1.00  0.00     0.000 A 
ENDBRANCH  32  33
ENDBRANCH  31  32
ENDBRANCH  30  31
ENDBRANCH   1  30
TORSDOF 9
