REMARK SMILES CN1CC2c3ccccc3Oc3ccc(Cl)cc3C2C1
REMARK SMILES IDX 1 1 2 2 3 3 4 4 5 5 6 6 7 7 8 8 9 9 10 10 11 11 12 12 13 13
REMARK SMILES IDX 14 14 15 15 16 16 17 17 18 18 19 19 20 20
REMARK H PARENT
REMARK Flexibility Score: inf
ROOT
ATOM      1  C   UNL     1      -2.458  -3.425   0.064  1.00  0.00     0.105 C 
ATOM      2  N   UNL     1      -1.605  -2.394   0.633  1.00  0.00    -0.305 NA
ATOM      3  C   UNL     1      -0.263  -2.348   0.026  1.00  0.00     0.093 C 
ATOM      4  C   UNL     1       0.065  -0.856  -0.200  1.00  0.00     0.046 C 
ATOM      5  C   UNL     1       1.522  -0.469  -0.055  1.00  0.00    -0.000 A 
ATOM      6  C   UNL     1       2.492  -1.272  -0.692  1.00  0.00     0.008 A 
ATOM      7  C   UNL     1       3.854  -0.973  -0.612  1.00  0.00     0.001 A 
ATOM      8  C   UNL     1       4.279   0.141   0.100  1.00  0.00     0.004 A 
ATOM      9  C   UNL     1       3.338   0.961   0.717  1.00  0.00     0.047 A 
ATOM     10  C   UNL     1       1.968   0.679   0.622  1.00  0.00     0.130 A 
ATOM     11  O   UNL     1       1.167   1.570   1.303  1.00  0.00    -0.457 OA
ATOM     12  C   UNL     1       0.088   2.092   0.629  1.00  0.00     0.131 A 
ATOM     13  C   UNL     1       0.105   3.456   0.338  1.00  0.00     0.049 A 
ATOM     14  C   UNL     1      -1.011   4.049  -0.251  1.00  0.00     0.024 A 
ATOM     15  C   UNL     1      -2.138   3.276  -0.521  1.00  0.00     0.041 A 
ATOM     16  Cl  UNL     1      -3.520   4.009  -1.240  1.00  0.00    -0.084 Cl
ATOM     17  C   UNL     1      -2.163   1.912  -0.212  1.00  0.00     0.028 A 
ATOM     18  C   UNL     1      -1.043   1.303   0.368  1.00  0.00     0.001 A 
ATOM     19  C   UNL     1      -0.951  -0.158   0.713  1.00  0.00     0.046 C 
ATOM     20  C   UNL     1      -2.178  -1.049   0.514  1.00  0.00     0.093 C 
ENDROOT
TORSDOF 0
