REMARK SMILES Cc1ncc(C[n+]2csc(CCO)c2C)c(N)n1
REMARK SMILES IDX 7 1 8 2 9 3 10 4 14 5 15 6 6 7 5 8 1 9 2 10 3 11 18 12 4 13
REMARK SMILES IDX 16 14 17 15 11 18 12 19 13 20
REMARK H PARENT 17 16 17 17 13 21
REMARK Flexibility Score: inf
ROOT
ATOM      1  N   UNL     1       0.342  -0.808   0.387  1.00  0.00    -0.188 N 
ATOM      2  C   UNL     1       0.061  -0.597   1.665  1.00  0.00     0.378 A 
ATOM      3  S   UNL     1       1.309   0.265   2.448  1.00  0.00    -0.075 S 
ATOM      4  C   UNL     1       2.250   0.320   1.014  1.00  0.00     0.079 A 
ATOM      5  C   UNL     1       1.587  -0.325  -0.017  1.00  0.00     0.192 A 
ATOM      6  C   UNL     1       2.059  -0.541  -1.408  1.00  0.00     0.125 C 
ENDROOT
BRANCH   1   7
ATOM      7  C   UNL     1      -0.611  -1.533  -0.475  1.00  0.00     0.400 C 
BRANCH   7   8
ATOM      8  C   UNL     1      -1.785  -0.667  -0.800  1.00  0.00     0.077 A 
ATOM      9  C   UNL     1      -4.935   2.024  -1.540  1.00  0.00     0.090 C 
ATOM     10  C   UNL     1      -3.825   1.051  -1.296  1.00  0.00     0.127 A 
ATOM     11  N   UNL     1      -2.752   1.101  -2.102  1.00  0.00    -0.241 NA
ATOM     12  N   UNL     1      -3.942   0.206  -0.257  1.00  0.00    -0.216 NA
ATOM     13  C   UNL     1      -1.757   0.241  -1.838  1.00  0.00     0.127 A 
ATOM     14  C   UNL     1      -2.937  -0.646  -0.040  1.00  0.00     0.136 A 
BRANCH  14  15
ATOM     15  N   UNL     1      -3.129  -1.526   1.028  1.00  0.00    -0.383 N 
ATOM     16  H   UNL     1      -3.258  -2.481   0.695  1.00  0.00     0.158 HD
ATOM     17  H   UNL     1      -4.024  -1.243   1.445  1.00  0.00     0.158 HD
ENDBRANCH  14  15
ENDBRANCH   7   8
ENDBRANCH   1   7
BRANCH   4  18
ATOM     18  C   UNL     1       3.588   1.000   1.015  1.00  0.00     0.082 C 
BRANCH  18  19
ATOM     19  C   UNL     1       4.727   0.026   1.305  1.00  0.00     0.162 C 
BRANCH  19  20
ATOM     20  O   UNL     1       5.973   0.642   1.020  1.00  0.00    -0.396 OA
ATOM     21  H   UNL     1       6.192   1.247   1.751  1.00  0.00     0.210 HD
ENDBRANCH  19  20
ENDBRANCH  18  19
ENDBRANCH   4  18
TORSDOF 6
