REMARK SMILES Cn1cc(-c2cc3c(N4CCN(c5ncc([C@@](C)(N)c6ccc(F)cc6)cn5)CC4)ncnn3c2)cn1
REMARK SMILES IDX 13 1 14 2 15 3 16 4 27 5 28 6 12 7 5 8 6 9 35 10 7 11 34 12
REMARK SMILES IDX 8 13 33 14 9 15 31 16 32 17 10 18 30 19 11 20 29 21 4 22
REMARK SMILES IDX 1 23 2 24 3 25 37 26 36 27 17 28 18 29 19 30 20 33 21 34
REMARK SMILES IDX 26 35 22 36 25 37 23 38 24 39
REMARK H PARENT 19 31 19 32
REMARK Flexibility Score: inf
ROOT
ATOM      1  C   UNL     1      -1.940   0.211   1.467  1.00  0.00     0.225 A 
ATOM      2  N   UNL     1      -2.379   1.210   0.686  1.00  0.00    -0.221 NA
ATOM      3  C   UNL     1      -3.714   1.405   0.598  1.00  0.00     0.122 A 
ATOM      4  C   UNL     1      -4.663   0.654   1.262  1.00  0.00     0.013 A 
ATOM      5  C   UNL     1      -4.110  -0.341   2.035  1.00  0.00     0.122 A 
ATOM      6  N   UNL     1      -2.783  -0.574   2.154  1.00  0.00    -0.221 NA
ENDROOT
BRANCH   1   7
ATOM      7  N   UNL     1      -0.572   0.008   1.581  1.00  0.00    -0.337 N 
ATOM      8  C   UNL     1       6.108  -0.297  -0.737  1.00  0.00     0.005 A 
ATOM      9  C   UNL     1       4.853  -0.282  -0.074  1.00  0.00     0.042 A 
ATOM     10  C   UNL     1       6.112  -1.394  -1.567  1.00  0.00     0.122 A 
ATOM     11  C   UNL     1       4.125  -1.360  -0.545  1.00  0.00     0.108 A 
ATOM     12  N   UNL     1       4.919  -2.049  -1.414  1.00  0.00    -0.235 N 
ATOM     13  C   UNL     1       2.813  -1.885  -0.274  1.00  0.00     0.156 C 
ATOM     14  N   UNL     1       4.586  -3.205  -2.007  1.00  0.00    -0.156 NA
ATOM     15  N   UNL     1       1.866  -1.273   0.538  1.00  0.00    -0.351 N 
ATOM     16  N   UNL     1       2.515  -3.025  -0.834  1.00  0.00    -0.215 NA
ATOM     17  C   UNL     1       3.410  -3.633  -1.675  1.00  0.00     0.247 C 
ATOM     18  C   UNL     1       1.713   0.193   0.602  1.00  0.00     0.139 C 
ATOM     19  C   UNL     1       0.690  -2.048   0.991  1.00  0.00     0.139 C 
ATOM     20  C   UNL     1       0.236   0.634   0.526  1.00  0.00     0.141 C 
ATOM     21  C   UNL     1      -0.109  -1.297   2.073  1.00  0.00     0.141 C 
BRANCH   8  22
ATOM     22  C   UNL     1       7.183   0.666  -0.553  1.00  0.00     0.021 A 
ATOM     23  C   UNL     1      10.358   2.283  -1.056  1.00  0.00     0.173 C 
ATOM     24  N   UNL     1       9.048   1.805  -0.687  1.00  0.00    -0.275 N 
ATOM     25  C   UNL     1       8.385   0.738  -1.220  1.00  0.00     0.117 A 
ATOM     26  N   UNL     1       8.359   2.436   0.283  1.00  0.00    -0.181 NA
ATOM     27  C   UNL     1       7.220   1.737   0.361  1.00  0.00     0.143 A 
ENDBRANCH   8  22
ENDBRANCH   1   7
BRANCH   4  28
ATOM     28  C   UNL     1      -6.151   0.914   1.098  1.00  0.00     0.067 C 
ATOM     29  C   UNL     1      -7.025   0.198   2.162  1.00  0.00     0.038 C 
BRANCH  28  30
ATOM     30  N   UNL     1      -6.409   2.354   1.332  1.00  0.00    -0.318 NA
ATOM     31  H   UNL     1      -6.133   2.595   2.284  1.00  0.00     0.120 HD
ATOM     32  H   UNL     1      -7.414   2.522   1.283  1.00  0.00     0.120 HD
ENDBRANCH  28  30
BRANCH  28  33
ATOM     33  C   UNL     1      -6.605   0.501  -0.323  1.00  0.00    -0.024 A 
ATOM     34  C   UNL     1      -6.784   1.456  -1.346  1.00  0.00     0.009 A 
ATOM     35  C   UNL     1      -6.793  -0.855  -0.660  1.00  0.00     0.009 A 
ATOM     36  C   UNL     1      -7.168   1.076  -2.635  1.00  0.00     0.039 A 
ATOM     37  C   UNL     1      -7.180  -1.234  -1.949  1.00  0.00     0.039 A 
ATOM     38  C   UNL     1      -7.367  -0.265  -2.922  1.00  0.00     0.123 A 
ATOM     39  F   UNL     1      -7.736  -0.632  -4.156  1.00  0.00    -0.207 F 
ENDBRANCH  28  33
ENDBRANCH   4  28
TORSDOF 5
