REMARK SMILES CCNCc1cncc(-c2ccc3[nH]nc(-c4nc5c(F)cc(F)cc5[nH]4)c3c2)c1C
REMARK SMILES IDX 5 1 6 2 7 3 8 4 9 5 30 6 31 7 4 8 3 9 2 11 1 12 10 13 11 14
REMARK SMILES IDX 29 15 12 16 28 17 13 18 16 19 14 20 15 21 17 23 18 24 27 25
REMARK SMILES IDX 19 26 26 27 20 29 25 30 21 31 22 32 23 33 24 34
REMARK H PARENT 3 10 14 22 27 28
REMARK Flexibility Score: inf
ROOT
ATOM      1  C   UNL     1      -3.605   0.288   1.074  1.00  0.00    -0.012 A 
ATOM      2  C   UNL     1      -3.932  -0.042   2.391  1.00  0.00     0.116 A 
ATOM      3  N   UNL     1      -3.192   0.283   3.469  1.00  0.00    -0.264 NA
ATOM      4  C   UNL     1      -2.044   0.949   3.221  1.00  0.00     0.120 A 
ATOM      5  C   UNL     1      -1.591   1.335   1.954  1.00  0.00     0.003 A 
ATOM      6  C   UNL     1      -2.405   1.004   0.847  1.00  0.00    -0.036 A 
ATOM      7  C   UNL     1      -2.028   1.403  -0.559  1.00  0.00     0.045 C 
ENDROOT
BRANCH   1   8
ATOM      8  C   UNL     1      -4.531  -0.176  -0.025  1.00  0.00     0.118 C 
BRANCH   8   9
ATOM      9  N   UNL     1      -4.382  -1.615  -0.246  1.00  0.00    -0.313 NA
ATOM     10  H   UNL     1      -3.401  -1.826  -0.441  1.00  0.00     0.123 HD
BRANCH   9  11
ATOM     11  C   UNL     1      -5.214  -2.077  -1.353  1.00  0.00     0.078 C 
ATOM     12  C   UNL     1      -5.042  -3.580  -1.528  1.00  0.00     0.020 C 
ENDBRANCH   9  11
ENDBRANCH   8   9
ENDBRANCH   1   8
BRANCH   5  13
ATOM     13  C   UNL     1      -0.305   2.041   1.848  1.00  0.00    -0.016 A 
ATOM     14  C   UNL     1      -0.168   3.354   2.329  1.00  0.00     0.011 A 
ATOM     15  C   UNL     1       0.815   1.399   1.283  1.00  0.00     0.021 A 
ATOM     16  C   UNL     1       1.048   4.047   2.263  1.00  0.00     0.029 A 
ATOM     17  C   UNL     1       2.043   2.081   1.194  1.00  0.00     0.031 A 
ATOM     18  C   UNL     1       2.130   3.377   1.688  1.00  0.00     0.066 A 
ATOM     19  C   UNL     1       3.341   1.802   0.698  1.00  0.00     0.135 A 
ATOM     20  N   UNL     1       3.428   3.758   1.475  1.00  0.00    -0.277 N 
ATOM     21  N   UNL     1       4.192   2.824   0.876  1.00  0.00    -0.171 NA
ATOM     22  H   UNL     1       3.853   4.647   1.714  1.00  0.00     0.190 HD
BRANCH  19  23
ATOM     23  C   UNL     1       3.802   0.483   0.005  1.00  0.00     0.159 A 
ATOM     24  N   UNL     1       3.053  -0.570  -0.247  1.00  0.00    -0.224 NA
ATOM     25  N   UNL     1       5.087   0.296  -0.432  1.00  0.00    -0.336 N 
ATOM     26  C   UNL     1       3.887  -1.474  -0.868  1.00  0.00     0.125 A 
ATOM     27  C   UNL     1       5.174  -0.950  -0.992  1.00  0.00     0.072 A 
ATOM     28  H   UNL     1       5.821   0.984  -0.335  1.00  0.00     0.168 HD
ATOM     29  C   UNL     1       3.639  -2.767  -1.363  1.00  0.00     0.153 A 
ATOM     30  C   UNL     1       6.230  -1.650  -1.582  1.00  0.00     0.067 A 
ATOM     31  F   UNL     1       2.420  -3.317  -1.276  1.00  0.00    -0.204 F 
ATOM     32  C   UNL     1       4.672  -3.493  -1.957  1.00  0.00     0.081 A 
ATOM     33  C   UNL     1       5.940  -2.933  -2.056  1.00  0.00     0.128 A 
ATOM     34  F   UNL     1       6.922  -3.645  -2.627  1.00  0.00    -0.207 F 
ENDBRANCH  19  23
ENDBRANCH   5  13
TORSDOF 5
