REMARK SMILES Cc1cc(Nc2cc(CN3CCOCC3)c3nc(C)c(Cc4ccc(Cl)cc4F)n3n2)n[nH]1
REMARK SMILES IDX 5 1 6 2 31 3 30 4 20 5 18 6 19 7 17 8 16 9 8 10 7 11 4 13
REMARK SMILES IDX 1 14 2 15 3 16 33 17 32 18 9 20 10 21 11 22 15 23 12 24
REMARK SMILES IDX 14 25 13 26 21 27 22 28 23 29 28 30 24 31 27 32 29 33 25 34
REMARK SMILES IDX 26 35
REMARK H PARENT 5 12 33 19
REMARK Flexibility Score: inf
ROOT
ATOM      1  N   UNL     1      -1.534   1.695  -1.240  1.00  0.00    -0.322 N 
ATOM      2  C   UNL     1      -0.855   0.723  -0.524  1.00  0.00     0.153 C 
ATOM      3  N   UNL     1       0.191   0.972   0.214  1.00  0.00    -0.148 NA
ATOM      4  N   UNL     1       0.741  -0.097   0.834  1.00  0.00    -0.215 N 
ATOM      5  C   UNL     1       1.854  -0.062   1.640  1.00  0.00     0.070 A 
ATOM      6  C   UNL     1       2.055  -1.371   2.042  1.00  0.00     0.062 A 
ATOM      7  C   UNL     1       3.120  -1.927   2.907  1.00  0.00     0.069 C 
ATOM      8  N   UNL     1       1.092  -2.196   1.508  1.00  0.00    -0.232 NA
ATOM      9  C   UNL     1       0.319  -1.410   0.786  1.00  0.00     0.158 A 
ATOM     10  C   UNL     1      -0.831  -1.711   0.006  1.00  0.00     0.015 C 
ATOM     11  C   UNL     1      -1.407  -0.677  -0.636  1.00  0.00     0.058 C 
ATOM     12  H   UNL     1      -2.357   1.395  -1.741  1.00  0.00     0.170 HD
ENDROOT
BRANCH   1  13
ATOM     13  C   UNL     1      -1.169   2.995  -1.333  1.00  0.00     0.153 A 
ATOM     14  C   UNL     1      -1.652   6.469  -2.514  1.00  0.00     0.066 C 
ATOM     15  C   UNL     1      -1.329   5.131  -1.976  1.00  0.00     0.034 A 
ATOM     16  C   UNL     1      -1.962   3.912  -2.076  1.00  0.00     0.071 A 
ATOM     17  N   UNL     1      -0.229   4.895  -1.204  1.00  0.00    -0.281 N 
ATOM     18  N   UNL     1      -0.106   3.619  -0.820  1.00  0.00    -0.158 NA
ATOM     19  H   UNL     1       0.482   5.553  -0.903  1.00  0.00     0.190 HD
ENDBRANCH   1  13
BRANCH  10  20
ATOM     20  C   UNL     1      -1.377  -3.128  -0.089  1.00  0.00     0.124 C 
BRANCH  20  21
ATOM     21  N   UNL     1      -2.799  -3.234  -0.474  1.00  0.00    -0.294 NA
ATOM     22  C   UNL     1      -3.088  -4.604  -0.958  1.00  0.00     0.113 C 
ATOM     23  C   UNL     1      -3.705  -2.884   0.648  1.00  0.00     0.113 C 
ATOM     24  C   UNL     1      -4.583  -4.940  -0.857  1.00  0.00     0.175 C 
ATOM     25  C   UNL     1      -4.300  -4.104   1.368  1.00  0.00     0.175 C 
ATOM     26  O   UNL     1      -5.059  -4.952   0.496  1.00  0.00    -0.379 OA
ENDBRANCH  20  21
ENDBRANCH  10  20
BRANCH   5  27
ATOM     27  C   UNL     1       2.595   1.195   1.935  1.00  0.00     0.097 C 
BRANCH  27  28
ATOM     28  C   UNL     1       3.711   1.459   0.954  1.00  0.00    -0.006 A 
ATOM     29  C   UNL     1       3.449   2.085  -0.274  1.00  0.00     0.008 A 
ATOM     30  C   UNL     1       5.022   1.062   1.235  1.00  0.00     0.128 A 
ATOM     31  C   UNL     1       4.482   2.310  -1.187  1.00  0.00     0.021 A 
ATOM     32  C   UNL     1       6.058   1.282   0.332  1.00  0.00     0.060 A 
ATOM     33  F   UNL     1       5.304   0.457   2.399  1.00  0.00    -0.207 F 
ATOM     34  C   UNL     1       5.780   1.908  -0.879  1.00  0.00     0.043 A 
ATOM     35  Cl  UNL     1       7.051   2.188  -2.006  1.00  0.00    -0.084 Cl
ENDBRANCH  27  28
ENDBRANCH   5  27
TORSDOF 5
