REMARK SMILES CN(C)CCCN1c2ccccc2CCc2ccccc21
REMARK SMILES IDX 6 1 5 2 4 3 2 4 1 5 3 6 7 7 8 8 9 9 13 10 10 11 12 12 11 13
REMARK SMILES IDX 14 14 21 16 16 17 20 18 17 19 19 20 18 21 15 22
REMARK H PARENT
REMARK Flexibility Score: 90.00
ROOT
ATOM      1  C   UNL     1       0.721   0.472  -0.315  1.00  0.00     0.124 C 
ENDROOT
BRANCH   1   2
ATOM      2  C   UNL     1       1.713  -0.694  -0.489  1.00  0.00     0.037 C 
BRANCH   2   3
ATOM      3  C   UNL     1       3.082  -0.212  -0.987  1.00  0.00     0.085 C 
BRANCH   3   4
ATOM      4  N   UNL     1       3.736   0.755  -0.091  1.00  0.00    -0.309 NA
ATOM      5  C   UNL     1       4.850   1.410  -0.783  1.00  0.00     0.104 C 
ATOM      6  C   UNL     1       4.227   0.117   1.134  1.00  0.00     0.104 C 
ENDBRANCH   3   4
ENDBRANCH   2   3
ENDBRANCH   1   2
BRANCH   1   7
ATOM      7  N   UNL     1      -0.685  -0.003  -0.118  1.00  0.00    -0.341 N 
BRANCH   7   8
ATOM      8  C   UNL     1      -1.473   0.138  -1.310  1.00  0.00     0.044 A 
ATOM      9  C   UNL     1      -0.911  -0.117  -2.585  1.00  0.00     0.026 A 
ATOM     10  C   UNL     1      -2.820   0.546  -1.307  1.00  0.00    -0.024 A 
ATOM     11  C   UNL     1      -1.615   0.065  -3.781  1.00  0.00     0.002 A 
ATOM     12  C   UNL     1      -3.524   0.743  -2.517  1.00  0.00     0.006 A 
ATOM     13  C   UNL     1      -2.924   0.509  -3.747  1.00  0.00     0.000 A 
BRANCH  10  14
ATOM     14  C   UNL     1      -3.574   0.753  -0.029  1.00  0.00     0.042 CG0
ATOM     15  G   UNL     1      -3.589  -0.558   0.735  1.00  0.00     0.000 G0
ENDBRANCH  10  14
ENDBRANCH   7   8
BRANCH   7  16
ATOM     16  C   UNL     1      -1.060  -0.365   1.219  1.00  0.00     0.044 A 
ATOM     17  C   UNL     1      -2.376  -0.700   1.617  1.00  0.00    -0.024 A 
ATOM     18  C   UNL     1      -0.089  -0.454   2.252  1.00  0.00     0.026 A 
ATOM     19  C   UNL     1      -2.644  -1.176   2.928  1.00  0.00     0.006 A 
ATOM     20  C   UNL     1      -0.367  -0.897   3.552  1.00  0.00     0.002 A 
ATOM     21  C   UNL     1      -1.648  -1.277   3.888  1.00  0.00     0.000 A 
BRANCH  17  22
ATOM     22  C   UNL     1      -3.589  -0.558   0.735  1.00  0.00     0.042 CG0
ATOM     23  G   UNL     1      -3.574   0.753  -0.029  1.00  0.00     0.000 G0
ENDBRANCH  17  22
ENDBRANCH   7  16
ENDBRANCH   1   7
TORSDOF 4
