REMARK SMILES CC(C)C[C@H](NC(=O)[C@H](Cc1ccccc1)NC(=O)c1cnccn1)B(O)O
REMARK SMILES IDX 6 1 7 2 8 3 5 5 4 6 2 7 1 8 3 9 26 10 27 11 28 13 9 15 10 16
REMARK SMILES IDX 11 17 12 18 16 19 13 20 15 21 14 22 17 23 18 24 19 26 20 27
REMARK SMILES IDX 21 28 25 29 22 30 24 31 23 32
REMARK H PARENT 6 4 27 12 28 14 17 25
REMARK Flexibility Score: inf
ROOT
ATOM      1  N   UNL     1       1.405   0.570   0.415  1.00  0.00    -0.353 N 
ATOM      2  C   UNL     1       0.083   0.496  -0.111  1.00  0.00     0.242 C 
ATOM      3  O   UNL     1      -0.173  -0.053  -1.214  1.00  0.00    -0.273 OA
ATOM      4  H   UNL     1       1.603   1.029   1.333  1.00  0.00     0.163 HD
ENDROOT
BRANCH   1   5
ATOM      5  C   UNL     1       2.556   0.009  -0.293  1.00  0.00     0.114 C 
BRANCH   5   6
ATOM      6  C   UNL     1       3.506   1.102  -0.698  1.00  0.00     0.025 C 
BRANCH   6   7
ATOM      7  C   UNL     1       4.718   0.605  -1.435  1.00  0.00    -0.016 C 
ATOM      8  C   UNL     1       5.568  -0.357  -0.672  1.00  0.00     0.007 C 
ATOM      9  C   UNL     1       4.336  -0.040  -2.763  1.00  0.00     0.007 C 
ENDBRANCH   6   7
ENDBRANCH   5   6
BRANCH   5  10
ATOM     10  B   UNL     1       3.230  -1.110   0.565  1.00  0.00     0.475 B 
BRANCH  10  11
ATOM     11  O   UNL     1       2.846  -2.506   0.329  1.00  0.00    -0.426 OA
ATOM     12  H   UNL     1       3.477  -3.126   0.810  1.00  0.00     0.189 HD
ENDBRANCH  10  11
BRANCH  10  13
ATOM     13  O   UNL     1       3.525  -0.785   1.978  1.00  0.00    -0.426 OA
ATOM     14  H   UNL     1       3.890   0.144   1.990  1.00  0.00     0.189 HD
ENDBRANCH  10  13
ENDBRANCH   5  10
ENDBRANCH   1   5
BRANCH   2  15
ATOM     15  C   UNL     1      -1.006   1.090   0.679  1.00  0.00     0.176 C 
BRANCH  15  16
ATOM     16  C   UNL     1      -1.084   0.553   2.092  1.00  0.00     0.070 C 
BRANCH  16  17
ATOM     17  C   UNL     1      -1.308  -0.899   2.136  1.00  0.00    -0.045 A 
ATOM     18  C   UNL     1      -2.637  -1.333   2.159  1.00  0.00     0.004 A 
ATOM     19  C   UNL     1      -0.304  -1.845   2.156  1.00  0.00     0.004 A 
ATOM     20  C   UNL     1      -2.954  -2.684   2.201  1.00  0.00     0.000 A 
ATOM     21  C   UNL     1      -0.639  -3.184   2.197  1.00  0.00     0.000 A 
ATOM     22  C   UNL     1      -1.943  -3.617   2.220  1.00  0.00     0.000 A 
ENDBRANCH  16  17
ENDBRANCH  15  16
BRANCH  15  23
ATOM     23  N   UNL     1      -2.259   0.912  -0.025  1.00  0.00    -0.339 N 
ATOM     24  C   UNL     1      -2.974   2.070  -0.423  1.00  0.00     0.272 C 
ATOM     25  H   UNL     1      -2.656  -0.026  -0.250  1.00  0.00     0.164 HD
ATOM     26  O   UNL     1      -2.547   3.216  -0.180  1.00  0.00    -0.267 OA
BRANCH  24  27
ATOM     27  C   UNL     1      -4.246   1.955  -1.137  1.00  0.00     0.146 A 
ATOM     28  C   UNL     1      -4.902   3.125  -1.501  1.00  0.00     0.145 A 
ATOM     29  N   UNL     1      -4.803   0.772  -1.454  1.00  0.00    -0.248 NA
ATOM     30  N   UNL     1      -6.074   3.058  -2.159  1.00  0.00    -0.261 NA
ATOM     31  C   UNL     1      -5.985   0.707  -2.118  1.00  0.00     0.132 A 
ATOM     32  C   UNL     1      -6.654   1.877  -2.489  1.00  0.00     0.131 A 
ENDBRANCH  24  27
ENDBRANCH  15  23
ENDBRANCH   2  15
TORSDOF 11
