REMARK SMILES CCC(=O)N(c1ccccc1)C1CCN(CCc2ccccc2)CC1
REMARK SMILES IDX 12 1 13 2 14 3 15 4 24 5 25 6 5 7 3 8 4 9 2 10 1 11 6 12
REMARK SMILES IDX 7 13 11 14 8 15 10 16 9 17 16 18 17 19 18 20 19 21 23 22
REMARK SMILES IDX 20 23 22 24 21 25
REMARK H PARENT
REMARK Flexibility Score: inf
ROOT
ATOM      1  C   UNL     1      -1.086   0.484   0.118  1.00  0.00     0.093 C 
ATOM      2  C   UNL     1      -0.202  -0.726   0.473  1.00  0.00     0.041 C 
ATOM      3  C   UNL     1       0.622  -1.233  -0.711  1.00  0.00     0.086 C 
ATOM      4  N   UNL     1       1.335  -0.201  -1.458  1.00  0.00    -0.303 NA
ATOM      5  C   UNL     1       0.694   1.112  -1.509  1.00  0.00     0.086 C 
ATOM      6  C   UNL     1      -0.816   1.024  -1.296  1.00  0.00     0.041 C 
ENDROOT
BRANCH   1   7
ATOM      7  N   UNL     1      -2.510   0.289   0.474  1.00  0.00    -0.309 N 
BRANCH   7   8
ATOM      8  C   UNL     1      -2.862   0.429   1.826  1.00  0.00     0.226 C 
ATOM      9  O   UNL     1      -2.058   0.842   2.667  1.00  0.00    -0.275 OA
BRANCH   8  10
ATOM     10  C   UNL     1      -4.270   0.014   2.244  1.00  0.00     0.097 C 
ATOM     11  C   UNL     1      -4.410  -0.101   3.755  1.00  0.00     0.014 C 
ENDBRANCH   8  10
ENDBRANCH   7   8
BRANCH   7  12
ATOM     12  C   UNL     1      -3.432  -0.128  -0.523  1.00  0.00     0.044 A 
ATOM     13  C   UNL     1      -3.215  -1.294  -1.263  1.00  0.00     0.026 A 
ATOM     14  C   UNL     1      -4.564   0.650  -0.794  1.00  0.00     0.026 A 
ATOM     15  C   UNL     1      -4.124  -1.685  -2.249  1.00  0.00     0.002 A 
ATOM     16  C   UNL     1      -5.472   0.260  -1.782  1.00  0.00     0.002 A 
ATOM     17  C   UNL     1      -5.252  -0.909  -2.507  1.00  0.00     0.000 A 
ENDBRANCH   7  12
ENDBRANCH   1   7
BRANCH   4  18
ATOM     18  C   UNL     1       2.783  -0.146  -1.230  1.00  0.00     0.089 C 
BRANCH  18  19
ATOM     19  C   UNL     1       3.231   0.157   0.210  1.00  0.00     0.051 C 
BRANCH  19  20
ATOM     20  C   UNL     1       4.736   0.247   0.315  1.00  0.00    -0.047 A 
ATOM     21  C   UNL     1       5.387   1.476   0.146  1.00  0.00     0.004 A 
ATOM     22  C   UNL     1       5.501  -0.902   0.555  1.00  0.00     0.004 A 
ATOM     23  C   UNL     1       6.778   1.556   0.225  1.00  0.00     0.000 A 
ATOM     24  C   UNL     1       6.892  -0.820   0.633  1.00  0.00     0.000 A 
ATOM     25  C   UNL     1       7.530   0.408   0.469  1.00  0.00     0.000 A 
ENDBRANCH  19  20
ENDBRANCH  18  19
ENDBRANCH   4  18
TORSDOF 7
