REMARK SMILES C[C@H]1[C@H](c2ccccc2)OCCN1C
REMARK SMILES IDX 1 1 2 2 3 3 10 4 11 5 12 6 13 7 14 8 4 9 5 10 9 11 6 12 8 13
REMARK SMILES IDX 7 14
REMARK H PARENT
REMARK Flexibility Score: inf
ROOT
ATOM      1  C   UNL     1      -0.747   1.338  -1.444  1.00  0.00     0.028 C 
ATOM      2  C   UNL     1      -0.956   0.182  -0.455  1.00  0.00     0.086 C 
ATOM      3  C   UNL     1       0.055   0.269   0.743  1.00  0.00     0.165 C 
ATOM      4  O   UNL     1      -0.125  -0.791   1.706  1.00  0.00    -0.371 OA
ATOM      5  C   UNL     1      -1.457  -1.306   1.757  1.00  0.00     0.176 C 
ATOM      6  C   UNL     1      -2.512  -0.260   1.386  1.00  0.00     0.113 C 
ATOM      7  N   UNL     1      -2.382   0.216  -0.006  1.00  0.00    -0.298 NA
ATOM      8  C   UNL     1      -3.237  -0.563  -0.906  1.00  0.00     0.105 C 
ENDROOT
BRANCH   3   9
ATOM      9  C   UNL     1       1.508   0.208   0.305  1.00  0.00    -0.018 A 
ATOM     10  C   UNL     1       2.317   1.352   0.375  1.00  0.00     0.006 A 
ATOM     11  C   UNL     1       2.066  -0.981  -0.191  1.00  0.00     0.006 A 
ATOM     12  C   UNL     1       3.648   1.309  -0.046  1.00  0.00     0.000 A 
ATOM     13  C   UNL     1       3.396  -1.023  -0.611  1.00  0.00     0.000 A 
ATOM     14  C   UNL     1       4.186   0.123  -0.540  1.00  0.00     0.000 A 
ENDBRANCH   3   9
TORSDOF 1
