REMARK SMILES Cc1ccc(Sc2ccccc2N2CCNCC2)c(C)c1
REMARK SMILES IDX 7 1 8 2 9 3 10 4 11 5 12 6 6 7 5 8 1 9 2 10 3 11 21 12 4 13
REMARK SMILES IDX 19 14 20 15 13 16 14 17 18 18 15 19 17 20 16 21
REMARK H PARENT 16 22
REMARK Flexibility Score: inf
ROOT
ATOM      1  C   UNL     1       0.328  -0.473  -1.062  1.00  0.00     0.036 A 
ATOM      2  C   UNL     1      -0.554  -1.379  -1.681  1.00  0.00     0.017 A 
ATOM      3  C   UNL     1      -0.174  -2.697  -1.931  1.00  0.00     0.001 A 
ATOM      4  C   UNL     1       1.098  -3.124  -1.580  1.00  0.00     0.002 A 
ATOM      5  C   UNL     1       1.993  -2.232  -0.985  1.00  0.00     0.027 A 
ATOM      6  C   UNL     1       1.641  -0.895  -0.716  1.00  0.00     0.051 A 
ENDROOT
BRANCH   1   7
ATOM      7  S   UNL     1      -0.191   1.240  -0.826  1.00  0.00    -0.088 SA
BRANCH   7   8
ATOM      8  C   UNL     1      -1.920   1.101  -0.384  1.00  0.00     0.015 A 
ATOM      9  C   UNL     1      -6.160   0.894   0.417  1.00  0.00     0.044 C 
ATOM     10  C   UNL     1      -4.690   0.949   0.127  1.00  0.00    -0.051 A 
ATOM     11  C   UNL     1      -4.224   1.490  -1.072  1.00  0.00     0.004 A 
ATOM     12  C   UNL     1      -3.761   0.516   1.082  1.00  0.00     0.008 A 
ATOM     13  C   UNL     1      -2.853   1.562  -1.325  1.00  0.00     0.016 A 
ATOM     14  C   UNL     1      -2.375   0.592   0.847  1.00  0.00    -0.037 A 
ATOM     15  C   UNL     1      -1.438   0.109   1.918  1.00  0.00     0.045 C 
ENDBRANCH   7   8
ENDBRANCH   1   7
BRANCH   6  16
ATOM     16  N   UNL     1       2.562  -0.023  -0.114  1.00  0.00    -0.368 N 
ATOM     17  C   UNL     1       3.973  -0.089  -0.526  1.00  0.00     0.132 C 
ATOM     18  C   UNL     1       2.329   0.231   1.323  1.00  0.00     0.132 C 
ATOM     19  C   UNL     1       4.753   1.072   0.131  1.00  0.00     0.102 C 
ATOM     20  C   UNL     1       3.647   0.226   2.134  1.00  0.00     0.102 C 
ATOM     21  N   UNL     1       4.714   1.101   1.611  1.00  0.00    -0.313 NA
ATOM     22  H   UNL     1       4.516   2.061   1.893  1.00  0.00     0.122 HD
ENDBRANCH   6  16
TORSDOF 3
