REMARK SMILES Nc1cncc(-c2cn3ccnc3c(Nc3ccc(N4CCN(C5COC5)CC4)cc3)n2)n1
REMARK SMILES IDX 7 1 8 2 9 3 10 4 11 5 12 6 13 7 14 8 15 9 32 10 6 12 2 13
REMARK SMILES IDX 3 14 33 15 4 16 5 17 1 18 16 21 17 22 31 23 18 24 30 25
REMARK SMILES IDX 19 26 20 27 21 28 29 29 22 30 28 31 23 32 24 33 25 34 27 35
REMARK SMILES IDX 26 36
REMARK H PARENT 15 11 1 19 1 20
REMARK Flexibility Score: inf
ROOT
ATOM      1  C   UNL     1      -4.896   0.507   1.118  1.00  0.00     0.110 C 
ATOM      2  C   UNL     1      -5.735   0.106   2.095  1.00  0.00     0.123 C 
ATOM      3  N   UNL     1      -5.198  -0.153   3.336  1.00  0.00    -0.302 N 
ATOM      4  C   UNL     1      -5.758  -0.538   4.525  1.00  0.00     0.113 A 
ATOM      5  C   UNL     1      -4.696  -0.624   5.406  1.00  0.00     0.132 A 
ATOM      6  N   UNL     1      -3.506  -0.315   4.788  1.00  0.00    -0.234 NA
ATOM      7  C   UNL     1      -3.853  -0.031   3.549  1.00  0.00     0.180 A 
ATOM      8  C   UNL     1      -2.979   0.371   2.453  1.00  0.00     0.175 C 
ATOM      9  N   UNL     1      -1.619   0.435   2.701  1.00  0.00    -0.337 N 
ATOM     10  N   UNL     1      -3.527   0.667   1.296  1.00  0.00    -0.224 NA
ATOM     11  H   UNL     1      -1.390   0.186   3.661  1.00  0.00     0.168 HD
ENDROOT
BRANCH   1  12
ATOM     12  C   UNL     1      -5.459   0.790  -0.212  1.00  0.00     0.111 A 
ATOM     13  C   UNL     1      -6.436   0.005  -2.147  1.00  0.00     0.142 A 
ATOM     14  C   UNL     1      -6.492   1.329  -2.611  1.00  0.00     0.157 A 
ATOM     15  N   UNL     1      -5.938  -0.270  -0.928  1.00  0.00    -0.226 NA
ATOM     16  N   UNL     1      -6.055   2.403  -1.899  1.00  0.00    -0.259 NA
ATOM     17  C   UNL     1      -5.520   2.098  -0.692  1.00  0.00     0.141 A 
BRANCH  13  18
ATOM     18  N   UNL     1      -6.863  -1.075  -2.942  1.00  0.00    -0.382 N 
ATOM     19  H   UNL     1      -6.296  -1.112  -3.793  1.00  0.00     0.158 HD
ATOM     20  H   UNL     1      -7.840  -0.953  -3.203  1.00  0.00     0.158 HD
ENDBRANCH  13  18
ENDBRANCH   1  12
BRANCH   9  21
ATOM     21  C   UNL     1      -0.555   0.198   1.807  1.00  0.00     0.040 A 
ATOM     22  C   UNL     1       0.749   0.155   2.322  1.00  0.00     0.028 A 
ATOM     23  C   UNL     1      -0.697   0.066   0.426  1.00  0.00     0.028 A 
ATOM     24  C   UNL     1       1.861  -0.075   1.494  1.00  0.00     0.028 A 
ATOM     25  C   UNL     1       0.415  -0.162  -0.400  1.00  0.00     0.028 A 
ATOM     26  C   UNL     1       1.715  -0.253   0.115  1.00  0.00     0.037 A 
BRANCH  26  27
ATOM     27  N   UNL     1       2.780  -0.512  -0.749  1.00  0.00    -0.369 N 
ATOM     28  C   UNL     1       3.003   0.541  -1.766  1.00  0.00     0.132 C 
ATOM     29  C   UNL     1       3.996  -1.181  -0.250  1.00  0.00     0.132 C 
ATOM     30  C   UNL     1       4.350   0.338  -2.497  1.00  0.00     0.106 C 
ATOM     31  C   UNL     1       5.228  -0.244  -0.285  1.00  0.00     0.106 C 
ATOM     32  N   UNL     1       5.529   0.378  -1.596  1.00  0.00    -0.292 NA
BRANCH  32  33
ATOM     33  C   UNL     1       6.722  -0.104  -2.329  1.00  0.00     0.108 C 
ATOM     34  C   UNL     1       7.990  -0.127  -1.463  1.00  0.00     0.181 C 
ATOM     35  C   UNL     1       6.891  -1.628  -2.365  1.00  0.00     0.181 C 
ATOM     36  O   UNL     1       7.934  -1.579  -1.355  1.00  0.00    -0.378 OA
ENDBRANCH  32  33
ENDBRANCH  26  27
ENDBRANCH   9  21
TORSDOF 5
