REMARK SMILES C1=N/C2=N/c3ccc(OCCN4CCCC4)c(c3)COC/C=C/COCc3cccc(c3)C(=C1)N2
REMARK SMILES IDX 1 1 2 2 3 3 4 4 33 5 34 6 35 7 31 9 30 10 32 11 29 12 27 13
REMARK SMILES IDX 28 14 26 15 25 16 24 17 23 18 22 19 5 21 6 22 18 23 7 24
REMARK SMILES IDX 17 25 8 26 19 27 20 28 21 29 9 31 10 32 11 33 12 34 13 35
REMARK SMILES IDX 16 36 14 37 15 38
REMARK H PARENT 35 8
REMARK Flexibility Score: 70.00
ROOT
ATOM      1  C   UNL     1       4.339   1.265   4.538  1.00  0.00     0.117 C 
ATOM      2  N   UNL     1       3.050   1.268   4.648  1.00  0.00    -0.221 NA
ATOM      3  C   UNL     1       2.330   1.026   3.498  1.00  0.00     0.227 C 
ATOM      4  N   UNL     1       1.049   1.171   3.638  1.00  0.00    -0.213 NA
ATOM      5  C   UNL     1       4.365   0.738   2.238  1.00  0.00     0.050 C 
ATOM      6  C   UNL     1       5.122   1.031   3.302  1.00  0.00     0.047 C 
ATOM      7  N   UNL     1       2.998   0.676   2.349  1.00  0.00    -0.324 N 
ATOM      8  H   UNL     1       2.469   0.572   1.495  1.00  0.00     0.170 HD
ENDROOT
BRANCH   5   9
ATOM      9  C   UNL     1       4.953   0.498   0.914  1.00  0.00    -0.002 A 
ATOM     10  C   UNL     1       5.664   1.508   0.255  1.00  0.00     0.010 A 
ATOM     11  C   UNL     1       4.753  -0.732   0.271  1.00  0.00     0.016 A 
ATOM     12  C   UNL     1       6.163   1.295  -1.030  1.00  0.00     0.001 A 
ATOM     13  C   UNL     1       5.254  -0.956  -1.020  1.00  0.00    -0.022 A 
ATOM     14  C   UNL     1       5.954   0.072  -1.666  1.00  0.00     0.006 A 
BRANCH  13  15
ATOM     15  C   UNL     1       5.019  -2.267  -1.724  1.00  0.00     0.196 C 
BRANCH  15  16
ATOM     16  O   UNL     1       4.097  -2.112  -2.799  1.00  0.00    -0.373 OA
BRANCH  16  17
ATOM     17  C   UNL     1       2.733  -2.164  -2.394  1.00  0.00     0.188 C 
BRANCH  17  18
ATOM     18  C   UNL     1       2.057  -0.908  -2.845  1.00  0.00    -0.001 C 
ATOM     19  C   UNL     1       1.235  -0.171  -2.079  1.00  0.00    -0.001 CG0
ATOM     20  G   UNL     1       0.526   1.063  -2.548  1.00  0.00     0.000 G0
ENDBRANCH  17  18
ENDBRANCH  16  17
ENDBRANCH  15  16
ENDBRANCH  13  15
ENDBRANCH   5   9
BRANCH   4  21
ATOM     21  C   UNL     1       0.190   0.979   2.550  1.00  0.00     0.068 A 
ATOM     22  C   UNL     1      -0.756  -0.041   2.600  1.00  0.00     0.032 A 
ATOM     23  C   UNL     1       0.224   1.807   1.426  1.00  0.00     0.038 A 
ATOM     24  C   UNL     1      -1.638  -0.255   1.534  1.00  0.00     0.049 A 
ATOM     25  C   UNL     1      -0.636   1.590   0.334  1.00  0.00     0.022 A 
ATOM     26  C   UNL     1      -1.583   0.552   0.394  1.00  0.00     0.125 A 
BRANCH  25  27
ATOM     27  C   UNL     1      -0.472   2.461  -0.887  1.00  0.00     0.200 C 
BRANCH  27  28
ATOM     28  O   UNL     1       0.718   2.109  -1.598  1.00  0.00    -0.373 OA
BRANCH  28  29
ATOM     29  C   UNL     1       0.526   1.063  -2.548  1.00  0.00     0.188 CG0
ATOM     30  G   UNL     1       1.235  -0.171  -2.079  1.00  0.00     0.000 G0
ENDBRANCH  28  29
ENDBRANCH  27  28
ENDBRANCH  25  27
BRANCH  26  31
ATOM     31  O   UNL     1      -2.387   0.419  -0.704  1.00  0.00    -0.492 OA
BRANCH  31  32
ATOM     32  C   UNL     1      -3.436  -0.556  -0.700  1.00  0.00     0.245 C 
BRANCH  32  33
ATOM     33  C   UNL     1      -4.690  -0.016   0.011  1.00  0.00     0.126 C 
BRANCH  33  34
ATOM     34  N   UNL     1      -5.810  -0.976  -0.009  1.00  0.00    -0.300 NA
ATOM     35  C   UNL     1      -6.509  -0.991  -1.306  1.00  0.00     0.084 C 
ATOM     36  C   UNL     1      -6.865  -0.586   0.943  1.00  0.00     0.084 C 
ATOM     37  C   UNL     1      -7.527   0.141  -1.258  1.00  0.00     0.017 C 
ATOM     38  C   UNL     1      -7.717   0.445   0.221  1.00  0.00     0.017 C 
ENDBRANCH  33  34
ENDBRANCH  32  33
ENDBRANCH  31  32
ENDBRANCH  26  31
ENDBRANCH   4  21
TORSDOF 4
