REMARK SMILES O=C1CCc2ccc(OCCCCN3CCN(c4cccc(Cl)c4Cl)CC3)cc2N1
REMARK SMILES IDX 11 1 10 2 9 3 8 4 1 5 2 6 3 7 30 8 4 9 29 10 5 12 28 13 6 14
REMARK SMILES IDX 7 15 12 16 13 17 14 18 15 19 27 20 16 21 26 22 17 23 18 24
REMARK SMILES IDX 19 25 24 26 20 27 22 28 25 29 21 30 23 31
REMARK H PARENT 30 11
REMARK Flexibility Score: inf
ROOT
ATOM      1  C   UNL     1       0.096  -0.031  -0.895  1.00  0.00     0.043 C 
ENDROOT
BRANCH   1   2
ATOM      2  C   UNL     1       1.498  -0.357  -1.413  1.00  0.00     0.229 C 
BRANCH   2   3
ATOM      3  O   UNL     1       2.402  -0.421  -0.310  1.00  0.00    -0.494 OA
BRANCH   3   4
ATOM      4  C   UNL     1       3.728  -0.592  -0.606  1.00  0.00     0.121 A 
ATOM      5  O   UNL     1       8.897  -0.301   2.305  1.00  0.00    -0.275 OA
ATOM      6  C   UNL     1       8.193  -0.375   1.302  1.00  0.00     0.224 C 
ATOM      7  C   UNL     1       8.766  -0.307  -0.095  1.00  0.00     0.105 C 
ATOM      8  N   UNL     1       6.827  -0.417   1.399  1.00  0.00    -0.326 N 
ATOM      9  C   UNL     1       7.972  -1.152  -1.077  1.00  0.00     0.047 C 
ATOM     10  C   UNL     1       5.969  -0.574   0.306  1.00  0.00     0.048 A 
ATOM     11  H   UNL     1       6.447  -0.329   2.334  1.00  0.00     0.169 HD
ATOM     12  C   UNL     1       6.498  -0.893  -0.948  1.00  0.00    -0.024 A 
ATOM     13  C   UNL     1       4.592  -0.438   0.482  1.00  0.00     0.072 A 
ATOM     14  C   UNL     1       5.631  -1.069  -2.030  1.00  0.00     0.010 A 
ATOM     15  C   UNL     1       4.251  -0.909  -1.862  1.00  0.00     0.047 A 
ENDBRANCH   3   4
ENDBRANCH   2   3
ENDBRANCH   1   2
BRANCH   1  16
ATOM     16  C   UNL     1       0.051   1.307  -0.146  1.00  0.00     0.019 C 
BRANCH  16  17
ATOM     17  C   UNL     1      -1.359   1.887   0.063  1.00  0.00     0.085 C 
BRANCH  17  18
ATOM     18  N   UNL     1      -2.121   1.322   1.189  1.00  0.00    -0.300 NA
ATOM     19  C   UNL     1      -2.556  -0.074   0.949  1.00  0.00     0.106 C 
ATOM     20  C   UNL     1      -3.289   2.178   1.527  1.00  0.00     0.106 C 
ATOM     21  C   UNL     1      -3.889  -0.470   1.633  1.00  0.00     0.132 C 
ATOM     22  C   UNL     1      -4.607   1.775   0.826  1.00  0.00     0.132 C 
ATOM     23  N   UNL     1      -5.008   0.398   1.205  1.00  0.00    -0.368 N 
BRANCH  23  24
ATOM     24  C   UNL     1      -6.006  -0.134   0.368  1.00  0.00     0.057 A 
ATOM     25  C   UNL     1      -5.677  -1.010  -0.682  1.00  0.00     0.027 A 
ATOM     26  C   UNL     1      -7.372   0.217   0.527  1.00  0.00     0.083 A 
ATOM     27  C   UNL     1      -6.649  -1.521  -1.545  1.00  0.00     0.004 A 
ATOM     28  C   UNL     1      -8.345  -0.296  -0.349  1.00  0.00     0.061 A 
ATOM     29  Cl  UNL     1      -7.852   1.250   1.844  1.00  0.00    -0.080 Cl
ATOM     30  C   UNL     1      -7.981  -1.164  -1.380  1.00  0.00     0.022 A 
ATOM     31  Cl  UNL     1     -10.024   0.112  -0.221  1.00  0.00    -0.083 Cl
ENDBRANCH  23  24
ENDBRANCH  17  18
ENDBRANCH  16  17
ENDBRANCH   1  16
TORSDOF 7
