REMARK SMILES COc1cc2nc(N3CCN(C(=O)C4COc5ccccc5O4)CC3)nc(N)c2cc1OC
REMARK SMILES IDX 8 1 9 2 10 3 11 4 12 5 13 6 24 7 25 8 7 9 3 10 4 11 31 12
REMARK SMILES IDX 5 13 30 14 6 15 29 16 27 17 26 18 2 19 1 20 32 21 33 22
REMARK SMILES IDX 28 23 14 26 15 27 23 28 16 29 22 30 17 31 21 32 18 33 20 34
REMARK SMILES IDX 19 35
REMARK H PARENT 28 24 28 25
REMARK Flexibility Score: inf
ROOT
ATOM      1  N   UNL     1       0.545   0.906  -0.964  1.00  0.00    -0.337 N 
ATOM      2  C   UNL     1      -0.302  -0.078  -0.279  1.00  0.00     0.141 C 
ATOM      3  C   UNL     1      -1.752  -0.001  -0.792  1.00  0.00     0.141 C 
ATOM      4  N   UNL     1      -2.290   1.368  -0.774  1.00  0.00    -0.336 N 
ATOM      5  C   UNL     1      -3.623   1.715  -0.557  1.00  0.00     0.267 C 
ATOM      6  O   UNL     1      -4.025   2.861  -0.778  1.00  0.00    -0.270 OA
ATOM      7  C   UNL     1      -1.414   2.362  -1.411  1.00  0.00     0.141 C 
ATOM      8  C   UNL     1       0.041   2.290  -0.915  1.00  0.00     0.141 C 
ENDROOT
BRANCH   1   9
ATOM      9  C   UNL     1       1.904   0.799  -0.648  1.00  0.00     0.228 A 
ATOM     10  C   UNL     1       5.504  -1.929   0.810  1.00  0.00     0.162 A 
ATOM     11  C   UNL     1       4.153  -1.723   0.506  1.00  0.00     0.079 A 
ATOM     12  C   UNL     1       6.414  -0.871   0.658  1.00  0.00     0.161 A 
ATOM     13  C   UNL     1       3.677  -0.498   0.057  1.00  0.00     0.082 A 
ATOM     14  C   UNL     1       5.948   0.365   0.209  1.00  0.00     0.064 A 
ATOM     15  N   UNL     1       2.374  -0.380  -0.213  1.00  0.00    -0.213 NA
ATOM     16  C   UNL     1       4.575   0.556  -0.093  1.00  0.00     0.047 A 
ATOM     17  C   UNL     1       3.999   1.747  -0.546  1.00  0.00     0.137 A 
ATOM     18  N   UNL     1       2.695   1.864  -0.820  1.00  0.00    -0.195 NA
BRANCH  10  19
ATOM     19  O   UNL     1       6.027  -3.117   1.257  1.00  0.00    -0.493 OA
ATOM     20  C   UNL     1       5.135  -4.207   1.436  1.00  0.00     0.278 C 
ENDBRANCH  10  19
BRANCH  12  21
ATOM     21  O   UNL     1       7.720  -1.144   0.975  1.00  0.00    -0.493 OA
ATOM     22  C   UNL     1       8.685  -0.123   0.766  1.00  0.00     0.278 C 
ENDBRANCH  12  21
BRANCH  17  23
ATOM     23  N   UNL     1       4.771   2.904  -0.755  1.00  0.00    -0.383 N 
ATOM     24  H   UNL     1       5.474   2.722  -1.465  1.00  0.00     0.158 HD
ATOM     25  H   UNL     1       5.235   3.172   0.107  1.00  0.00     0.158 HD
ENDBRANCH  17  23
ENDBRANCH   1   9
BRANCH   5  26
ATOM     26  C   UNL     1      -4.584   0.637  -0.034  1.00  0.00     0.299 C 
ATOM     27  C   UNL     1      -5.104  -0.178  -1.211  1.00  0.00     0.285 C 
ATOM     28  O   UNL     1      -5.691   1.238   0.653  1.00  0.00    -0.473 OA
ATOM     29  O   UNL     1      -5.873  -1.295  -0.742  1.00  0.00    -0.485 OA
ATOM     30  C   UNL     1      -6.694   0.329   0.878  1.00  0.00     0.162 A 
ATOM     31  C   UNL     1      -6.774  -0.901   0.216  1.00  0.00     0.161 A 
ATOM     32  C   UNL     1      -7.667   0.685   1.810  1.00  0.00     0.050 A 
ATOM     33  C   UNL     1      -7.799  -1.794   0.521  1.00  0.00     0.050 A 
ATOM     34  C   UNL     1      -8.702  -0.204   2.106  1.00  0.00     0.004 A 
ATOM     35  C   UNL     1      -8.764  -1.444   1.467  1.00  0.00     0.004 A 
ENDBRANCH   5  26
TORSDOF 5
