REMARK SMILES O=C(CCCN1CC=C(n2c(=O)[nH]c3ccccc32)CC1)c1ccc(F)cc1
REMARK SMILES IDX 4 1 3 2 2 3 1 4 22 5 23 6 28 7 24 8 27 9 25 10 26 11 5 12
REMARK SMILES IDX 6 13 7 14 21 15 8 16 20 17 9 18 10 19 11 20 19 21 12 22
REMARK SMILES IDX 13 23 14 24 18 25 15 27 17 28 16 29
REMARK H PARENT 13 26
REMARK Flexibility Score: inf
ROOT
ATOM      1  C   UNL     1       2.091  -0.019   0.007  1.00  0.00     0.024 C 
ENDROOT
BRANCH   1   2
ATOM      2  C   UNL     1       3.569   0.296   0.257  1.00  0.00     0.082 C 
BRANCH   2   3
ATOM      3  C   UNL     1       4.463  -0.252  -0.843  1.00  0.00     0.162 C 
ATOM      4  O   UNL     1       4.012  -0.840  -1.823  1.00  0.00    -0.294 OA
BRANCH   3   5
ATOM      5  C   UNL     1       5.943  -0.063  -0.725  1.00  0.00     0.018 A 
ATOM      6  C   UNL     1       6.765  -0.598  -1.732  1.00  0.00     0.015 A 
ATOM      7  C   UNL     1       6.530   0.625   0.347  1.00  0.00     0.015 A 
ATOM      8  C   UNL     1       8.152  -0.447  -1.667  1.00  0.00     0.040 A 
ATOM      9  C   UNL     1       7.919   0.773   0.407  1.00  0.00     0.040 A 
ATOM     10  C   UNL     1       8.716   0.236  -0.598  1.00  0.00     0.123 A 
ATOM     11  F   UNL     1      10.045   0.382  -0.534  1.00  0.00    -0.207 F 
ENDBRANCH   3   5
ENDBRANCH   2   3
ENDBRANCH   1   2
BRANCH   1  12
ATOM     12  C   UNL     1       1.213   0.565   1.122  1.00  0.00     0.085 C 
BRANCH  12  13
ATOM     13  N   UNL     1      -0.229   0.324   1.029  1.00  0.00    -0.299 NA
ATOM     14  C   UNL     1      -0.597  -1.072   1.274  1.00  0.00     0.113 C 
ATOM     15  C   UNL     1      -0.832   0.797  -0.216  1.00  0.00     0.091 C 
ATOM     16  C   UNL     1      -2.062  -1.345   1.069  1.00  0.00     0.010 C 
ATOM     17  C   UNL     1      -2.366   0.788  -0.089  1.00  0.00     0.070 C 
ATOM     18  C   UNL     1      -2.926  -0.508   0.459  1.00  0.00     0.026 C 
BRANCH  18  19
ATOM     19  N   UNL     1      -4.280  -0.811   0.281  1.00  0.00    -0.265 N 
ATOM     20  C   UNL     1      -4.852  -2.132   0.439  1.00  0.00     0.330 C 
ATOM     21  C   UNL     1      -5.361   0.042  -0.108  1.00  0.00     0.074 A 
ATOM     22  O   UNL     1      -4.327  -3.192   0.747  1.00  0.00    -0.247 OA
ATOM     23  N   UNL     1      -6.215  -2.032   0.137  1.00  0.00    -0.305 N 
ATOM     24  C   UNL     1      -6.522  -0.729  -0.193  1.00  0.00     0.067 A 
ATOM     25  C   UNL     1      -5.440   1.401  -0.355  1.00  0.00     0.029 A 
ATOM     26  H   UNL     1      -6.841  -2.820   0.167  1.00  0.00     0.171 HD
ATOM     27  C   UNL     1      -7.758  -0.223  -0.542  1.00  0.00     0.028 A 
ATOM     28  C   UNL     1      -6.682   1.947  -0.713  1.00  0.00     0.002 A 
ATOM     29  C   UNL     1      -7.830   1.142  -0.810  1.00  0.00     0.002 A 
ENDBRANCH  18  19
ENDBRANCH  12  13
ENDBRANCH   1  12
TORSDOF 6
