REMARK SMILES CC1CS(=O)(=O)CCN1/N=C/c1ccc([N+](=O)[O-])o1
REMARK SMILES IDX 12 1 13 2 14 3 15 4 19 5 11 6 10 7 9 8 1 9 2 10 3 11 4 12
REMARK SMILES IDX 8 13 5 14 6 15 7 16 16 17 17 18 18 19
REMARK H PARENT
REMARK Flexibility Score: inf
ROOT
ATOM      1  C   UNL     1       2.533  -0.887  -0.266  1.00  0.00     0.154 A 
ATOM      2  C   UNL     1       3.389  -1.841  -0.793  1.00  0.00     0.060 A 
ATOM      3  C   UNL     1       4.706  -1.325  -0.678  1.00  0.00     0.134 A 
ATOM      4  C   UNL     1       4.562  -0.091  -0.091  1.00  0.00     0.433 A 
ATOM      5  O   UNL     1       3.259   0.193   0.165  1.00  0.00    -0.400 OA
ENDROOT
BRANCH   1   6
ATOM      6  C   UNL     1       1.102  -0.878  -0.125  1.00  0.00     0.180 C 
ATOM      7  N   UNL     1       0.483   0.117   0.428  1.00  0.00    -0.182 NA
BRANCH   7   8
ATOM      8  N   UNL     1      -0.895   0.043   0.499  1.00  0.00    -0.292 NA
ATOM      9  C   UNL     1      -2.378  -1.370  -0.905  1.00  0.00     0.034 C 
ATOM     10  C   UNL     1      -1.647  -0.031  -0.783  1.00  0.00     0.114 C 
ATOM     11  C   UNL     1      -2.559   1.169  -1.000  1.00  0.00     0.163 C 
ATOM     12  S   UNL     1      -3.752   1.347   0.304  1.00  0.00     0.154 S 
ATOM     13  C   UNL     1      -1.432   0.896   1.576  1.00  0.00     0.155 C 
ATOM     14  O   UNL     1      -4.862   0.456   0.021  1.00  0.00    -0.229 OA
ATOM     15  O   UNL     1      -3.985   2.768   0.488  1.00  0.00    -0.229 OA
ATOM     16  C   UNL     1      -2.921   0.741   1.753  1.00  0.00     0.160 C 
ENDBRANCH   7   8
ENDBRANCH   1   6
BRANCH   4  17
ATOM     17  N   UNL     1       5.521   0.902   0.279  1.00  0.00     0.102 N 
ATOM     18  O   UNL     1       5.109   1.946   0.798  1.00  0.00    -0.256 OA
ATOM     19  O   UNL     1       6.706   0.628   0.042  1.00  0.00    -0.256 OA
ENDBRANCH   4  17
TORSDOF 3
