REMARK SMILES C[C@H](Nc1ncnc2[nH]cnc12)c1cc2ccc(F)cc2nc1-c1ccccn1
REMARK SMILES IDX 1 1 2 2 3 3 4 5 12 6 5 7 11 8 8 9 6 10 10 11 9 12 7 13 13 15
REMARK SMILES IDX 14 16 23 17 15 18 22 19 21 20 16 21 20 22 17 23 18 24 19 25
REMARK SMILES IDX 24 26 29 27 25 28 28 29 26 30 27 31
REMARK H PARENT 3 4 9 14
REMARK Flexibility Score: inf
ROOT
ATOM      1  C   UNL     1       0.550   0.007   3.298  1.00  0.00     0.036 C 
ATOM      2  C   UNL     1       0.164  -0.600   1.942  1.00  0.00     0.110 C 
ENDROOT
BRANCH   2   3
ATOM      3  N   UNL     1       1.309  -1.239   1.299  1.00  0.00    -0.362 N 
ATOM      4  H   UNL     1       0.984  -1.956   0.637  1.00  0.00     0.162 HD
BRANCH   3   5
ATOM      5  C   UNL     1       2.297  -0.480   0.675  1.00  0.00     0.158 A 
ATOM      6  C   UNL     1       2.959  -0.954  -0.477  1.00  0.00     0.150 A 
ATOM      7  N   UNL     1       2.685   0.730   1.163  1.00  0.00    -0.217 NA
ATOM      8  N   UNL     1       2.833  -2.116  -1.219  1.00  0.00    -0.231 NA
ATOM      9  C   UNL     1       3.935  -0.138  -1.021  1.00  0.00     0.162 A 
ATOM     10  C   UNL     1       3.661   1.412   0.524  1.00  0.00     0.226 A 
ATOM     11  C   UNL     1       3.711  -1.993  -2.192  1.00  0.00     0.199 A 
ATOM     12  N   UNL     1       4.400  -0.813  -2.111  1.00  0.00    -0.329 N 
ATOM     13  N   UNL     1       4.345   1.060  -0.583  1.00  0.00    -0.217 NA
ATOM     14  H   UNL     1       5.122  -0.487  -2.735  1.00  0.00     0.169 HD
ENDBRANCH   3   5
ENDBRANCH   2   3
BRANCH   2  15
ATOM     15  C   UNL     1      -0.621   0.294   0.992  1.00  0.00     0.003 A 
ATOM     16  C   UNL     1      -0.447   1.690   1.019  1.00  0.00     0.018 A 
ATOM     17  C   UNL     1      -1.546  -0.215   0.063  1.00  0.00     0.095 A 
ATOM     18  C   UNL     1      -1.185   2.531   0.180  1.00  0.00     0.001 A 
ATOM     19  N   UNL     1      -2.293   0.608  -0.739  1.00  0.00    -0.246 NA
ATOM     20  C   UNL     1      -2.113   1.936  -0.690  1.00  0.00     0.074 A 
ATOM     21  C   UNL     1      -1.017   3.929   0.197  1.00  0.00     0.013 A 
ATOM     22  C   UNL     1      -2.859   2.754  -1.523  1.00  0.00     0.068 A 
ATOM     23  C   UNL     1      -1.776   4.732  -0.649  1.00  0.00     0.040 A 
ATOM     24  C   UNL     1      -2.691   4.134  -1.502  1.00  0.00     0.125 A 
ATOM     25  F   UNL     1      -3.426   4.900  -2.319  1.00  0.00    -0.207 F 
BRANCH  17  26
ATOM     26  C   UNL     1      -1.823  -1.660  -0.163  1.00  0.00     0.089 A 
ATOM     27  N   UNL     1      -0.780  -2.526  -0.044  1.00  0.00    -0.255 NA
ATOM     28  C   UNL     1      -3.095  -2.111  -0.525  1.00  0.00     0.030 A 
ATOM     29  C   UNL     1      -1.008  -3.836  -0.291  1.00  0.00     0.112 A 
ATOM     30  C   UNL     1      -3.305  -3.468  -0.762  1.00  0.00     0.004 A 
ATOM     31  C   UNL     1      -2.241  -4.350  -0.645  1.00  0.00     0.020 A 
ENDBRANCH  17  26
ENDBRANCH   2  15
TORSDOF 4
