REMARK SMILES CN(C)CCCC1(c2ccc(F)cc2)OCc2cc(C#N)ccc21
REMARK SMILES IDX 5 1 4 2 2 3 1 4 3 5 6 6 7 7 15 8 24 9 16 10 17 11 23 12
REMARK SMILES IDX 18 13 22 14 19 15 8 16 9 17 14 18 10 19 13 20 11 21 12 22
REMARK SMILES IDX 20 23 21 24
REMARK H PARENT
REMARK Flexibility Score: inf
ROOT
ATOM      1  C   UNL     1      -1.740   0.900   0.675  1.00  0.00     0.019 C 
ENDROOT
BRANCH   1   2
ATOM      2  C   UNL     1      -2.981   0.346   1.392  1.00  0.00     0.084 C 
BRANCH   2   3
ATOM      3  N   UNL     1      -3.590  -0.824   0.738  1.00  0.00    -0.309 NA
ATOM      4  C   UNL     1      -4.181  -0.479  -0.558  1.00  0.00     0.104 C 
ATOM      5  C   UNL     1      -4.615  -1.408   1.607  1.00  0.00     0.104 C 
ENDBRANCH   2   3
ENDBRANCH   1   2
BRANCH   1   6
ATOM      6  C   UNL     1      -0.634  -0.156   0.501  1.00  0.00     0.047 C 
BRANCH   6   7
ATOM      7  C   UNL     1       0.637   0.385  -0.201  1.00  0.00     0.119 C 
ATOM      8  O   UNL     1       0.219   0.883  -1.512  1.00  0.00    -0.361 OA
ATOM      9  C   UNL     1       1.562  -0.756  -0.553  1.00  0.00    -0.006 A 
ATOM     10  C   UNL     1       0.483  -0.104  -2.531  1.00  0.00     0.198 C 
ATOM     11  C   UNL     1       1.468  -1.023  -1.914  1.00  0.00    -0.015 A 
ATOM     12  C   UNL     1       2.397  -1.512   0.260  1.00  0.00     0.009 A 
ATOM     13  C   UNL     1       2.196  -2.044  -2.505  1.00  0.00     0.026 A 
ATOM     14  C   UNL     1       3.145  -2.541  -0.320  1.00  0.00     0.020 A 
ATOM     15  C   UNL     1       3.047  -2.809  -1.698  1.00  0.00     0.052 A 
BRANCH   7  16
ATOM     16  C   UNL     1       1.372   1.507   0.543  1.00  0.00    -0.012 A 
ATOM     17  C   UNL     1       1.996   2.552  -0.169  1.00  0.00     0.010 A 
ATOM     18  C   UNL     1       1.492   1.507   1.948  1.00  0.00     0.010 A 
ATOM     19  C   UNL     1       2.691   3.566   0.495  1.00  0.00     0.039 A 
ATOM     20  C   UNL     1       2.186   2.523   2.611  1.00  0.00     0.039 A 
ATOM     21  C   UNL     1       2.778   3.543   1.879  1.00  0.00     0.123 A 
ATOM     22  F   UNL     1       3.445   4.513   2.516  1.00  0.00    -0.207 F 
ENDBRANCH   7  16
BRANCH  15  23
ATOM     23  C   UNL     1       3.816  -3.872  -2.275  1.00  0.00     0.099 C 
ATOM     24  N   UNL     1       4.437  -4.733  -2.746  1.00  0.00    -0.192 NA
ENDBRANCH  15  23
ENDBRANCH   6   7
ENDBRANCH   1   6
TORSDOF 6
