REMARK SMILES CCN(CC)CCCC(C)Nc1ccnc2cc(Cl)ccc12
REMARK SMILES IDX 7 1 6 2 3 3 2 4 1 5 4 6 5 7 8 8 9 9 10 10 11 11 12 13 13 14
REMARK SMILES IDX 22 15 14 16 16 17 21 18 15 19 17 20 20 21 18 22 19 23
REMARK H PARENT 11 12
REMARK Flexibility Score: inf
ROOT
ATOM      1  C   UNL     1      -1.157   0.835  -0.960  1.00  0.00     0.018 C 
ENDROOT
BRANCH   1   2
ATOM      2  C   UNL     1      -2.469   0.858  -0.164  1.00  0.00     0.084 C 
BRANCH   2   3
ATOM      3  N   UNL     1      -3.365  -0.276  -0.457  1.00  0.00    -0.304 NA
BRANCH   3   4
ATOM      4  C   UNL     1      -2.771  -1.596  -0.188  1.00  0.00     0.081 C 
ATOM      5  C   UNL     1      -2.368  -1.879   1.257  1.00  0.00     0.021 C 
ENDBRANCH   3   4
BRANCH   3   6
ATOM      6  C   UNL     1      -4.665  -0.064   0.205  1.00  0.00     0.081 C 
ATOM      7  C   UNL     1      -5.739  -1.071  -0.196  1.00  0.00     0.021 C 
ENDBRANCH   3   6
ENDBRANCH   2   3
ENDBRANCH   1   2
BRANCH   1   8
ATOM      8  C   UNL     1      -0.350   2.121  -0.731  1.00  0.00     0.026 C 
BRANCH   8   9
ATOM      9  C   UNL     1       0.949   2.162  -1.550  1.00  0.00     0.076 C 
ATOM     10  C   UNL     1       1.679   3.500  -1.458  1.00  0.00     0.031 C 
BRANCH   9  11
ATOM     11  N   UNL     1       1.845   1.026  -1.305  1.00  0.00    -0.382 N 
ATOM     12  H   UNL     1       1.551   0.220  -1.852  1.00  0.00     0.160 HD
BRANCH  11  13
ATOM     13  C   UNL     1       2.445   0.627  -0.108  1.00  0.00     0.045 A 
ATOM     14  C   UNL     1       2.405   1.396   1.052  1.00  0.00     0.046 A 
ATOM     15  C   UNL     1       3.230  -0.569  -0.074  1.00  0.00     0.023 A 
ATOM     16  C   UNL     1       3.037   0.942   2.196  1.00  0.00     0.114 A 
ATOM     17  C   UNL     1       3.832  -0.941   1.155  1.00  0.00     0.074 A 
ATOM     18  C   UNL     1       3.452  -1.405  -1.198  1.00  0.00     0.014 A 
ATOM     19  N   UNL     1       3.726  -0.209   2.270  1.00  0.00    -0.256 NA
ATOM     20  C   UNL     1       4.578  -2.107   1.231  1.00  0.00     0.049 A 
ATOM     21  C   UNL     1       4.211  -2.572  -1.102  1.00  0.00     0.021 A 
ATOM     22  C   UNL     1       4.767  -2.920   0.119  1.00  0.00     0.043 A 
ATOM     23  Cl  UNL     1       5.702  -4.358   0.253  1.00  0.00    -0.084 Cl
ENDBRANCH  11  13
ENDBRANCH   9  11
ENDBRANCH   8   9
ENDBRANCH   1   8
TORSDOF 8
