REMARK SMILES CCN[C@H]1CN(CCCOC)S(=O)(=O)c2sc(S(N)(=O)=O)cc21
REMARK SMILES IDX 7 1 6 2 4 3 5 4 23 5 15 6 22 7 12 8 16 9 17 10 13 11 14 12
REMARK SMILES IDX 3 13 2 15 1 16 18 17 20 18 21 19 19 20 8 23 9 24 10 25 11 26
REMARK H PARENT 3 14 19 21 19 22
REMARK Flexibility Score: inf
ROOT
ATOM      1  C   UNL     1      -1.553   0.193   1.451  1.00  0.00     0.105 C 
ENDROOT
BRANCH   1   2
ATOM      2  N   UNL     1      -1.404  -0.394   0.095  1.00  0.00    -0.195 NA
ATOM      3  C   UNL     1       0.853   0.679  -0.532  1.00  0.00     0.101 C 
ATOM      4  C   UNL     1      -0.674   0.494  -0.877  1.00  0.00     0.126 C 
ATOM      5  C   UNL     1       1.564  -0.650  -0.293  1.00  0.00     0.003 A 
ATOM      6  C   UNL     1       0.873  -1.822  -0.043  1.00  0.00     0.141 A 
ATOM      7  C   UNL     1       2.977  -0.893  -0.235  1.00  0.00     0.040 A 
ATOM      8  S   UNL     1      -0.887  -2.024   0.005  1.00  0.00     0.252 S 
ATOM      9  S   UNL     1       1.867  -3.170   0.196  1.00  0.00    -0.109 S 
ATOM     10  C   UNL     1       3.282  -2.220   0.017  1.00  0.00     0.136 A 
ATOM     11  O   UNL     1      -1.227  -2.539  -1.301  1.00  0.00    -0.206 OA
ATOM     12  O   UNL     1      -1.205  -2.704   1.239  1.00  0.00    -0.206 OA
BRANCH   3  13
ATOM     13  N   UNL     1       1.591   1.360  -1.599  1.00  0.00    -0.309 NA
ATOM     14  H   UNL     1       1.154   1.205  -2.507  1.00  0.00     0.123 HD
BRANCH  13  15
ATOM     15  C   UNL     1       1.830   2.781  -1.370  1.00  0.00     0.078 C 
ATOM     16  C   UNL     1       0.580   3.644  -1.425  1.00  0.00     0.020 C 
ENDBRANCH  13  15
ENDBRANCH   3  13
BRANCH  10  17
ATOM     17  S   UNL     1       4.832  -3.075   0.175  1.00  0.00     0.247 S 
ATOM     18  O   UNL     1       4.962  -3.858  -1.030  1.00  0.00    -0.206 OA
ATOM     19  O   UNL     1       5.774  -2.054   0.567  1.00  0.00    -0.206 OA
BRANCH  17  20
ATOM     20  N   UNL     1       4.701  -4.140   1.465  1.00  0.00    -0.224 NA
ATOM     21  H   UNL     1       4.015  -4.873   1.294  1.00  0.00     0.137 HD
ATOM     22  H   UNL     1       4.620  -3.661   2.359  1.00  0.00     0.137 HD
ENDBRANCH  17  20
ENDBRANCH  10  17
ENDBRANCH   1   2
BRANCH   1  23
ATOM     23  C   UNL     1      -2.997   0.051   1.932  1.00  0.00     0.045 C 
BRANCH  23  24
ATOM     24  C   UNL     1      -3.890   1.217   1.500  1.00  0.00     0.161 C 
BRANCH  24  25
ATOM     25  O   UNL     1      -3.867   1.469   0.099  1.00  0.00    -0.385 OA
ATOM     26  C   UNL     1      -4.633   0.531  -0.648  1.00  0.00     0.194 C 
ENDBRANCH  24  25
ENDBRANCH  23  24
ENDBRANCH   1  23
TORSDOF 8
