REMARK SMILES O=C(O)c1ccc(-n2nc(-c3ccccc3O)nc2-c2ccccc2O)cc1
REMARK SMILES IDX 4 1 5 2 6 3 7 4 27 5 28 6 2 7 1 8 3 9 8 11 9 12 19 13 10 14
REMARK SMILES IDX 18 15 20 16 21 17 25 18 22 19 24 20 23 21 26 22 11 24 12 25
REMARK SMILES IDX 16 26 13 27 15 28 14 29 17 30
REMARK H PARENT 3 10 26 23 17 31
REMARK Flexibility Score: inf
ROOT
ATOM      1  C   UNL     1       4.438   0.699   0.089  1.00  0.00     0.060 A 
ATOM      2  C   UNL     1       3.845  -0.565   0.169  1.00  0.00     0.018 A 
ATOM      3  C   UNL     1       2.451  -0.701   0.134  1.00  0.00     0.029 A 
ATOM      4  C   UNL     1       1.633   0.432   0.044  1.00  0.00     0.067 A 
ATOM      5  C   UNL     1       2.237   1.700  -0.054  1.00  0.00     0.029 A 
ATOM      6  C   UNL     1       3.629   1.833  -0.029  1.00  0.00     0.018 A 
ENDROOT
BRANCH   1   7
ATOM      7  C   UNL     1       5.916   0.787   0.129  1.00  0.00     0.335 C 
ATOM      8  O   UNL     1       6.677  -0.121   0.414  1.00  0.00    -0.246 OA
BRANCH   7   9
ATOM      9  O   UNL     1       6.372   2.007  -0.209  1.00  0.00    -0.478 OA
ATOM     10  H   UNL     1       7.347   1.918  -0.156  1.00  0.00     0.297 HD
ENDBRANCH   7   9
ENDBRANCH   1   7
BRANCH   4  11
ATOM     11  N   UNL     1       0.209   0.344   0.009  1.00  0.00    -0.212 N 
ATOM     12  N   UNL     1      -0.515   1.415  -0.411  1.00  0.00    -0.145 NA
ATOM     13  C   UNL     1      -0.667  -0.699   0.307  1.00  0.00     0.167 A 
ATOM     14  C   UNL     1      -1.756   0.931  -0.521  1.00  0.00     0.185 A 
ATOM     15  N   UNL     1      -1.879  -0.379  -0.120  1.00  0.00    -0.206 NA
BRANCH  13  16
ATOM     16  C   UNL     1      -0.369  -1.957   0.989  1.00  0.00     0.061 A 
ATOM     17  C   UNL     1       0.252  -1.961   2.248  1.00  0.00     0.016 A 
ATOM     18  C   UNL     1      -0.733  -3.184   0.419  1.00  0.00     0.126 A 
ATOM     19  C   UNL     1       0.552  -3.166   2.888  1.00  0.00     0.001 A 
ATOM     20  C   UNL     1      -0.426  -4.387   1.051  1.00  0.00     0.047 A 
ATOM     21  C   UNL     1       0.222  -4.377   2.285  1.00  0.00     0.004 A 
BRANCH  18  22
ATOM     22  O   UNL     1      -1.397  -3.272  -0.773  1.00  0.00    -0.507 OA
ATOM     23  H   UNL     1      -1.794  -2.401  -0.969  1.00  0.00     0.293 HD
ENDBRANCH  18  22
ENDBRANCH  13  16
BRANCH  14  24
ATOM     24  C   UNL     1      -2.903   1.699  -0.997  1.00  0.00     0.063 A 
ATOM     25  C   UNL     1      -2.724   3.010  -1.473  1.00  0.00     0.016 A 
ATOM     26  C   UNL     1      -4.202   1.167  -0.998  1.00  0.00     0.126 A 
ATOM     27  C   UNL     1      -3.809   3.759  -1.939  1.00  0.00     0.001 A 
ATOM     28  C   UNL     1      -5.285   1.912  -1.467  1.00  0.00     0.047 A 
ATOM     29  C   UNL     1      -5.088   3.209  -1.938  1.00  0.00     0.004 A 
BRANCH  26  30
ATOM     30  O   UNL     1      -4.500  -0.092  -0.543  1.00  0.00    -0.507 OA
ATOM     31  H   UNL     1      -3.673  -0.488  -0.196  1.00  0.00     0.293 HD
ENDBRANCH  26  30
ENDBRANCH  14  24
ENDBRANCH   4  11
TORSDOF 7
