REMARK SMILES CN(C)CC/C=C1/c2ccccc2COc2ccc(CC(=O)O)cc21
REMARK SMILES IDX 6 1 7 2 8 3 9 4 10 5 11 6 12 7 13 8 14 9 15 10 16 11 17 12
REMARK SMILES IDX 18 13 19 14 24 15 25 16 5 17 4 18 2 19 1 20 3 21 20 22 21 23
REMARK SMILES IDX 22 24 23 25
REMARK H PARENT 23 26
REMARK Flexibility Score: inf
ROOT
ATOM      1  C   UNL     1       0.481  -1.149   0.155  1.00  0.00    -0.016 C 
ATOM      2  C   UNL     1      -0.592  -0.328   0.248  1.00  0.00    -0.011 C 
ATOM      3  C   UNL     1      -1.894  -0.918   0.676  1.00  0.00    -0.011 A 
ATOM      4  C   UNL     1      -1.933  -1.766   1.802  1.00  0.00     0.009 A 
ATOM      5  C   UNL     1      -3.127  -2.337   2.244  1.00  0.00     0.001 A 
ATOM      6  C   UNL     1      -4.311  -2.059   1.577  1.00  0.00     0.000 A 
ATOM      7  C   UNL     1      -4.300  -1.202   0.478  1.00  0.00     0.008 A 
ATOM      8  C   UNL     1      -3.101  -0.621   0.009  1.00  0.00    -0.003 A 
ATOM      9  C   UNL     1      -3.229   0.361  -1.145  1.00  0.00     0.266 C 
ATOM     10  O   UNL     1      -2.068   0.591  -1.954  1.00  0.00    -0.488 OA
ATOM     11  C   UNL     1      -1.231   1.476  -1.326  1.00  0.00     0.127 A 
ATOM     12  C   UNL     1      -1.116   2.765  -1.838  1.00  0.00     0.047 A 
ATOM     13  C   UNL     1      -0.286   3.688  -1.199  1.00  0.00     0.008 A 
ATOM     14  C   UNL     1       0.440   3.320  -0.055  1.00  0.00    -0.036 A 
ATOM     15  C   UNL     1       0.326   2.009   0.436  1.00  0.00     0.017 A 
ATOM     16  C   UNL     1      -0.489   1.072  -0.214  1.00  0.00     0.024 A 
ENDROOT
BRANCH   1  17
ATOM     17  C   UNL     1       1.860  -0.840  -0.379  1.00  0.00     0.043 C 
BRANCH  17  18
ATOM     18  C   UNL     1       2.320  -1.845  -1.456  1.00  0.00     0.088 C 
BRANCH  18  19
ATOM     19  N   UNL     1       2.464  -3.239  -0.987  1.00  0.00    -0.309 NA
ATOM     20  C   UNL     1       3.588  -3.392  -0.062  1.00  0.00     0.104 C 
ATOM     21  C   UNL     1       2.640  -4.134  -2.134  1.00  0.00     0.104 C 
ENDBRANCH  18  19
ENDBRANCH  17  18
ENDBRANCH   1  17
BRANCH  14  22
ATOM     22  C   UNL     1       1.320   4.324   0.651  1.00  0.00     0.158 C 
BRANCH  22  23
ATOM     23  C   UNL     1       0.583   5.190   1.643  1.00  0.00     0.307 C 
ATOM     24  O   UNL     1      -0.620   5.346   1.767  1.00  0.00    -0.252 OA
BRANCH  23  25
ATOM     25  O   UNL     1       1.435   5.876   2.437  1.00  0.00    -0.481 OA
ATOM     26  H   UNL     1       0.841   6.401   3.015  1.00  0.00     0.296 HD
ENDBRANCH  23  25
ENDBRANCH  22  23
ENDBRANCH  14  22
TORSDOF 6
