REMARK SMILES CC#CC(=O)N1CC[C@@H](n2c(=O)n(-c3ccc(Oc4ccccc4)cc3)c3c(N)ncnc32)C1
REMARK SMILES IDX 10 1 11 2 12 3 13 4 27 5 28 6 30 7 31 8 32 9 33 10 9 11 6 12
REMARK SMILES IDX 7 13 34 14 8 15 4 16 5 17 3 18 1 19 2 20 14 21 15 22 26 23
REMARK SMILES IDX 16 24 25 25 17 26 18 27 19 28 20 29 24 30 21 31 23 32 22 33
REMARK SMILES IDX 29 34
REMARK H PARENT 29 35 29 36
REMARK Flexibility Score: inf
ROOT
ATOM      1  N   UNL     1       1.926   0.093  -1.519  1.00  0.00    -0.271 N 
ATOM      2  C   UNL     1       1.169  -0.346  -0.418  1.00  0.00     0.335 C 
ATOM      3  O   UNL     1       1.572  -1.068   0.481  1.00  0.00    -0.247 OA
ATOM      4  N   UNL     1      -0.136   0.193  -0.590  1.00  0.00    -0.255 N 
ATOM      5  C   UNL     1      -0.133   0.994  -1.751  1.00  0.00     0.136 A 
ATOM      6  C   UNL     1      -0.994   1.900  -2.327  1.00  0.00     0.153 A 
ATOM      7  N   UNL     1      -0.650   2.526  -3.469  1.00  0.00    -0.217 NA
ATOM      8  C   UNL     1       0.583   2.307  -3.971  1.00  0.00     0.226 A 
ATOM      9  N   UNL     1       1.528   1.525  -3.438  1.00  0.00    -0.216 NA
ATOM     10  C   UNL     1       1.124   0.904  -2.329  1.00  0.00     0.167 A 
ENDROOT
BRANCH   1  11
ATOM     11  C   UNL     1       3.310  -0.209  -1.804  1.00  0.00     0.115 C 
ATOM     12  N   UNL     1       5.415  -0.744  -0.880  1.00  0.00    -0.330 N 
ATOM     13  C   UNL     1       5.102  -1.786  -1.838  1.00  0.00     0.123 C 
ATOM     14  C   UNL     1       4.293   0.161  -0.685  1.00  0.00     0.146 C 
ATOM     15  C   UNL     1       3.593  -1.700  -2.019  1.00  0.00     0.049 C 
BRANCH  12  16
ATOM     16  C   UNL     1       6.637  -0.675  -0.257  1.00  0.00     0.298 C 
ATOM     17  O   UNL     1       7.557  -1.451  -0.481  1.00  0.00    -0.259 OA
BRANCH  16  18
ATOM     18  C   UNL     1       6.834   0.382   0.714  1.00  0.00    -0.005 C 
ATOM     19  C   UNL     1       7.204   2.314   2.512  1.00  0.00     0.108 C 
ATOM     20  C   UNL     1       6.998   1.254   1.524  1.00  0.00    -0.096 C 
ENDBRANCH  16  18
ENDBRANCH  12  16
ENDBRANCH   1  11
BRANCH   4  21
ATOM     21  C   UNL     1      -1.241  -0.107   0.223  1.00  0.00     0.051 A 
ATOM     22  C   UNL     1      -2.487  -0.430  -0.327  1.00  0.00     0.030 A 
ATOM     23  C   UNL     1      -1.088  -0.180   1.613  1.00  0.00     0.030 A 
ATOM     24  C   UNL     1      -3.575  -0.751   0.494  1.00  0.00     0.049 A 
ATOM     25  C   UNL     1      -2.173  -0.494   2.436  1.00  0.00     0.049 A 
ATOM     26  C   UNL     1      -3.424  -0.760   1.881  1.00  0.00     0.127 A 
BRANCH  26  27
ATOM     27  O   UNL     1      -4.415  -1.094   2.779  1.00  0.00    -0.457 OA
BRANCH  27  28
ATOM     28  C   UNL     1      -5.720  -0.913   2.390  1.00  0.00     0.127 A 
ATOM     29  C   UNL     1      -6.243   0.364   2.173  1.00  0.00     0.047 A 
ATOM     30  C   UNL     1      -6.536  -2.041   2.296  1.00  0.00     0.047 A 
ATOM     31  C   UNL     1      -7.585   0.505   1.818  1.00  0.00     0.004 A 
ATOM     32  C   UNL     1      -7.877  -1.896   1.940  1.00  0.00     0.004 A 
ATOM     33  C   UNL     1      -8.400  -0.624   1.698  1.00  0.00     0.000 A 
ENDBRANCH  27  28
ENDBRANCH  26  27
ENDBRANCH   4  21
BRANCH   6  34
ATOM     34  N   UNL     1      -2.237   2.252  -1.808  1.00  0.00    -0.382 N 
ATOM     35  H   UNL     1      -2.173   2.434  -0.810  1.00  0.00     0.158 HD
ATOM     36  H   UNL     1      -2.924   1.523  -1.954  1.00  0.00     0.158 HD
ENDBRANCH   6  34
TORSDOF 7
