REMARK SMILES Cn1nnc(-c2ccc(-c3ccc(N4C[C@H](COP(=O)(O)O)OC4=O)cc3F)cn2)n1
REMARK SMILES IDX 14 1 15 2 16 3 23 4 24 5 25 6 13 7 10 8 11 9 27 10 12 11
REMARK SMILES IDX 26 12 28 13 9 14 6 15 7 16 30 17 8 18 29 19 5 20 1 21 2 22
REMARK SMILES IDX 3 23 31 24 4 25 17 26 18 27 19 28 20 29 21 30 22 32
REMARK H PARENT 21 31 22 33
REMARK Flexibility Score: inf
ROOT
ATOM      1  N   UNL     1      -3.112   0.262  -0.947  1.00  0.00    -0.274 N 
ATOM      2  C   UNL     1      -3.970   0.966  -0.040  1.00  0.00     0.177 C 
ATOM      3  C   UNL     1      -5.309   0.947  -0.742  1.00  0.00     0.225 C 
ATOM      4  O   UNL     1      -5.214  -0.139  -1.672  1.00  0.00    -0.441 OA
ATOM      5  C   UNL     1      -3.890  -0.446  -1.854  1.00  0.00     0.414 C 
ATOM      6  O   UNL     1      -3.536  -1.245  -2.704  1.00  0.00    -0.224 OA
ENDROOT
BRANCH   1   7
ATOM      7  C   UNL     1      -1.701   0.205  -0.800  1.00  0.00     0.050 A 
ATOM      8  C   UNL     1       1.143   0.134  -0.482  1.00  0.00     0.019 A 
ATOM      9  C   UNL     1       0.326   0.816   0.430  1.00  0.00     0.014 A 
ATOM     10  C   UNL     1       0.501  -0.508  -1.547  1.00  0.00     0.133 A 
ATOM     11  C   UNL     1      -1.068   0.850   0.274  1.00  0.00     0.027 A 
ATOM     12  C   UNL     1      -0.887  -0.475  -1.710  1.00  0.00     0.066 A 
ATOM     13  F   UNL     1       1.226  -1.168  -2.465  1.00  0.00    -0.206 F 
BRANCH   8  14
ATOM     14  C   UNL     1       2.605   0.101  -0.317  1.00  0.00     0.003 A 
ATOM     15  C   UNL     1       5.367  -0.041   0.008  1.00  0.00     0.111 A 
ATOM     16  C   UNL     1       4.735   1.197   0.085  1.00  0.00     0.033 A 
ATOM     17  N   UNL     1       4.677  -1.186  -0.225  1.00  0.00    -0.252 NA
ATOM     18  C   UNL     1       3.348   1.263  -0.076  1.00  0.00     0.013 A 
ATOM     19  C   UNL     1       3.334  -1.086  -0.387  1.00  0.00     0.120 A 
BRANCH  15  20
ATOM     20  C   UNL     1       6.818  -0.144   0.181  1.00  0.00     0.223 A 
ATOM     21  C   UNL     1       9.927  -1.653   0.410  1.00  0.00     0.201 C 
ATOM     22  N   UNL     1       8.768  -0.805   0.365  1.00  0.00    -0.167 N 
ATOM     23  N   UNL     1       8.862   0.523   0.527  1.00  0.00    -0.047 NA
ATOM     24  N   UNL     1       7.536  -1.285   0.145  1.00  0.00    -0.130 NA
ATOM     25  N   UNL     1       7.616   0.961   0.412  1.00  0.00    -0.106 NA
ENDBRANCH  15  20
ENDBRANCH   8  14
ENDBRANCH   1   7
BRANCH   3  26
ATOM     26  C   UNL     1      -6.503   0.742   0.183  1.00  0.00     0.220 C 
BRANCH  26  27
ATOM     27  O   UNL     1      -6.326  -0.424   0.974  1.00  0.00    -0.283 OA
BRANCH  27  28
ATOM     28  P   UNL     1      -7.575  -0.885   1.860  1.00  0.00     0.469 P 
ATOM     29  O   UNL     1      -8.176   0.155   2.739  1.00  0.00    -0.228 OA
BRANCH  28  30
ATOM     30  O   UNL     1      -8.618  -1.499   0.822  1.00  0.00    -0.303 OA
ATOM     31  H   UNL     1      -9.515  -1.518   1.211  1.00  0.00     0.223 HD
ENDBRANCH  28  30
BRANCH  28  32
ATOM     32  O   UNL     1      -7.057  -2.202   2.589  1.00  0.00    -0.303 OA
ATOM     33  H   UNL     1      -6.710  -2.848   1.945  1.00  0.00     0.223 HD
ENDBRANCH  28  32
ENDBRANCH  27  28
ENDBRANCH  26  27
ENDBRANCH   3  26
TORSDOF 8
