REMARK SMILES O=C(O)/C=C/c1ccc(Cn2ccnc2)cc1
REMARK SMILES IDX 6 1 7 2 8 3 9 4 16 5 17 6 5 7 4 8 2 9 1 10 3 11 10 13 11 14
REMARK SMILES IDX 12 15 15 16 13 17 14 18
REMARK H PARENT 3 12
REMARK Flexibility Score: inf
ROOT
ATOM      1  C   UNL     1       1.664  -0.452   0.256  1.00  0.00    -0.025 A 
ATOM      2  C   UNL     1       0.777  -1.431  -0.207  1.00  0.00     0.008 A 
ATOM      3  C   UNL     1      -0.583  -1.371   0.110  1.00  0.00     0.006 A 
ATOM      4  C   UNL     1      -1.083  -0.334   0.910  1.00  0.00    -0.028 A 
ATOM      5  C   UNL     1      -0.193   0.637   1.386  1.00  0.00     0.006 A 
ATOM      6  C   UNL     1       1.167   0.575   1.066  1.00  0.00     0.008 A 
ENDROOT
BRANCH   1   7
ATOM      7  C   UNL     1       3.089  -0.571  -0.082  1.00  0.00     0.015 C 
ATOM      8  C   UNL     1       3.893   0.475  -0.322  1.00  0.00     0.094 C 
BRANCH   8   9
ATOM      9  C   UNL     1       5.301   0.245  -0.667  1.00  0.00     0.328 C 
ATOM     10  O   UNL     1       5.874  -0.821  -0.775  1.00  0.00    -0.247 OA
BRANCH   9  11
ATOM     11  O   UNL     1       5.926   1.418  -0.857  1.00  0.00    -0.478 OA
ATOM     12  H   UNL     1       6.844   1.160  -1.082  1.00  0.00     0.297 HD
ENDBRANCH   9  11
ENDBRANCH   8   9
ENDBRANCH   1   7
BRANCH   4  13
ATOM     13  C   UNL     1      -2.550  -0.265   1.250  1.00  0.00     0.158 C 
BRANCH  13  14
ATOM     14  N   UNL     1      -3.347   0.155   0.111  1.00  0.00    -0.333 N 
ATOM     15  C   UNL     1      -4.182  -0.634  -0.632  1.00  0.00     0.107 A 
ATOM     16  C   UNL     1      -3.448   1.430  -0.370  1.00  0.00     0.199 A 
ATOM     17  C   UNL     1      -4.750   0.219  -1.550  1.00  0.00     0.130 A 
ATOM     18  N   UNL     1      -4.291   1.499  -1.375  1.00  0.00    -0.245 NA
ENDBRANCH  13  14
ENDBRANCH   4  13
TORSDOF 5
