REMARK SMILES CCn1cc(C(=O)O)c(=O)c2cc(F)c(N3CCNCC3)cc21
REMARK SMILES IDX 3 1 4 2 5 3 9 4 10 5 11 6 12 7 13 8 14 9 15 10 22 11 23 12
REMARK SMILES IDX 2 13 1 14 6 15 7 16 8 17 16 19 17 20 21 21 18 22 20 23 19 24
REMARK H PARENT 8 18 19 25
REMARK Flexibility Score: inf
ROOT
ATOM      1  N   UNL     1      -2.261  -0.586   0.855  1.00  0.00    -0.347 N 
ATOM      2  C   UNL     1      -3.579  -0.148   0.824  1.00  0.00     0.105 C 
ATOM      3  C   UNL     1      -4.028   1.016   0.333  1.00  0.00     0.124 C 
ATOM      4  C   UNL     1      -3.028   1.920  -0.276  1.00  0.00     0.204 C 
ATOM      5  O   UNL     1      -3.334   2.966  -0.838  1.00  0.00    -0.288 OA
ATOM      6  C   UNL     1      -1.604   1.497  -0.231  1.00  0.00     0.050 A 
ATOM      7  C   UNL     1      -0.639   2.358  -0.757  1.00  0.00     0.055 A 
ATOM      8  C   UNL     1       0.697   1.978  -0.749  1.00  0.00     0.147 A 
ATOM      9  F   UNL     1       1.590   2.861  -1.225  1.00  0.00    -0.205 F 
ATOM     10  C   UNL     1       1.123   0.738  -0.237  1.00  0.00     0.075 A 
ATOM     11  C   UNL     1       0.119  -0.097   0.301  1.00  0.00     0.056 A 
ATOM     12  C   UNL     1      -1.250   0.248   0.320  1.00  0.00     0.054 A 
ENDROOT
BRANCH   1  13
ATOM     13  C   UNL     1      -1.926  -1.907   1.416  1.00  0.00     0.119 C 
ATOM     14  C   UNL     1      -1.855  -2.963   0.323  1.00  0.00     0.027 C 
ENDBRANCH   1  13
BRANCH   3  15
ATOM     15  C   UNL     1      -5.467   1.287   0.433  1.00  0.00     0.341 C 
ATOM     16  O   UNL     1      -6.342   0.442   0.540  1.00  0.00    -0.246 OA
BRANCH  15  17
ATOM     17  O   UNL     1      -5.770   2.592   0.466  1.00  0.00    -0.477 OA
ATOM     18  H   UNL     1      -6.746   2.628   0.518  1.00  0.00     0.297 HD
ENDBRANCH  15  17
ENDBRANCH   3  15
BRANCH  10  19
ATOM     19  N   UNL     1       2.483   0.381  -0.237  1.00  0.00    -0.367 N 
ATOM     20  C   UNL     1       3.133   0.409  -1.571  1.00  0.00     0.132 C 
ATOM     21  C   UNL     1       2.941  -0.733   0.615  1.00  0.00     0.132 C 
ATOM     22  C   UNL     1       4.671   0.314  -1.437  1.00  0.00     0.102 C 
ATOM     23  C   UNL     1       4.485  -0.778   0.683  1.00  0.00     0.102 C 
ATOM     24  N   UNL     1       5.128  -0.847  -0.644  1.00  0.00    -0.313 NA
ATOM     25  H   UNL     1       4.808  -1.695  -1.112  1.00  0.00     0.122 HD
ENDBRANCH  10  19
TORSDOF 4
