REMARK SMILES CCOCCn1c(N2CCCN(C)CC2)nc2ccccc21
REMARK SMILES IDX 8 1 7 2 6 3 22 4 16 5 17 6 21 7 18 8 20 9 19 10 5 11 4 12
REMARK SMILES IDX 3 13 2 14 1 15 9 16 15 18 14 19 12 20 13 21 11 22 10 23
REMARK H PARENT
REMARK Flexibility Score: 80.00
ROOT
ATOM      1  N   UNL     1      -1.203  -0.496  -0.123  1.00  0.00    -0.341 N 
ENDROOT
BRANCH   1   2
ATOM      2  C   UNL     1      -0.167  -1.384  -0.091  1.00  0.00     0.206 A 
ATOM      3  N   UNL     1       1.138  -0.955  -0.198  1.00  0.00    -0.308 N 
ATOM      4  C   UNL     1       1.959  -2.057  -0.113  1.00  0.00     0.070 A 
ATOM      5  N   UNL     1      -0.224  -2.683   0.087  1.00  0.00    -0.213 NA
ATOM      6  C   UNL     1       1.076  -3.118   0.062  1.00  0.00     0.091 A 
ATOM      7  C   UNL     1       3.349  -2.230  -0.158  1.00  0.00     0.028 A 
ATOM      8  C   UNL     1       1.580  -4.421   0.194  1.00  0.00     0.031 A 
ATOM      9  C   UNL     1       3.832  -3.537  -0.026  1.00  0.00     0.002 A 
ATOM     10  C   UNL     1       2.965  -4.617   0.147  1.00  0.00     0.002 A 
BRANCH   3  11
ATOM     11  C   UNL     1       1.572   0.421  -0.300  1.00  0.00     0.154 C 
BRANCH  11  12
ATOM     12  C   UNL     1       1.584   1.124   1.053  1.00  0.00     0.182 C 
BRANCH  12  13
ATOM     13  O   UNL     1       2.119   2.446   0.939  1.00  0.00    -0.380 OA
BRANCH  13  14
ATOM     14  C   UNL     1       3.538   2.485   1.078  1.00  0.00     0.157 C 
ATOM     15  C   UNL     1       3.995   3.921   0.906  1.00  0.00     0.035 C 
ENDBRANCH  13  14
ENDBRANCH  12  13
ENDBRANCH  11  12
ENDBRANCH   3  11
ENDBRANCH   1   2
BRANCH   1  16
ATOM     16  C   UNL     1      -2.265  -0.803   0.859  1.00  0.00     0.121 CG0
ATOM     17  G   UNL     1      -2.963   0.489   1.266  1.00  0.00     0.000 G0
ENDBRANCH   1  16
BRANCH   1  18
ATOM     18  C   UNL     1      -1.732  -0.284  -1.492  1.00  0.00     0.135 C 
BRANCH  18  19
ATOM     19  C   UNL     1      -2.669   0.940  -1.604  1.00  0.00     0.105 C 
BRANCH  19  20
ATOM     20  N   UNL     1      -4.015   0.668  -1.074  1.00  0.00    -0.305 NA
ATOM     21  C   UNL     1      -5.035   1.439  -1.786  1.00  0.00     0.105 C 
BRANCH  20  22
ATOM     22  C   UNL     1      -4.143   0.879   0.373  1.00  0.00     0.086 C 
BRANCH  22  23
ATOM     23  C   UNL     1      -2.963   0.489   1.266  1.00  0.00     0.037 CG0
ATOM     24  G   UNL     1      -2.265  -0.803   0.859  1.00  0.00     0.000 G0
ENDBRANCH  22  23
ENDBRANCH  20  22
ENDBRANCH  19  20
ENDBRANCH  18  19
ENDBRANCH   1  18
TORSDOF 5
