REMARK SMILES Cc1cc(Nc2ncc(F)c(N[C@H]3[C@@H](C(N)=O)[C@@H]4C=C[C@H]3C4)n2)ccc1N1CCN(C)CC1
REMARK SMILES IDX 11 1 9 2 10 3 8 4 7 5 6 6 23 7 12 8 13 10 21 11 22 12 20 13
REMARK SMILES IDX 18 14 19 15 14 16 15 17 16 18 17 19 5 22 4 24 24 25 3 26
REMARK SMILES IDX 25 27 2 28 26 29 1 30 27 31 28 32 33 33 29 34 32 35 30 36
REMARK SMILES IDX 31 37
REMARK H PARENT 12 9 16 20 16 21 5 23
REMARK Flexibility Score: inf
ROOT
ATOM      1  C   UNL     1      -3.455   2.207  -0.509  1.00  0.00     0.168 A 
ATOM      2  C   UNL     1      -2.981   3.469  -0.192  1.00  0.00     0.183 A 
ATOM      3  F   UNL     1      -3.781   4.543  -0.144  1.00  0.00    -0.201 F 
ATOM      4  C   UNL     1      -1.646   3.571   0.089  1.00  0.00     0.158 A 
ATOM      5  N   UNL     1      -0.801   2.522   0.058  1.00  0.00    -0.218 NA
ATOM      6  C   UNL     1      -1.320   1.331  -0.277  1.00  0.00     0.229 A 
ATOM      7  N   UNL     1      -2.624   1.143  -0.559  1.00  0.00    -0.192 NA
ENDROOT
BRANCH   1   8
ATOM      8  N   UNL     1      -4.826   2.053  -0.824  1.00  0.00    -0.363 N 
ATOM      9  H   UNL     1      -5.357   2.542  -0.092  1.00  0.00     0.162 HD
BRANCH   8  10
ATOM     10  C   UNL     1      -5.278   0.672  -0.998  1.00  0.00     0.100 C 
ATOM     11  C   UNL     1      -6.670   0.635  -1.701  1.00  0.00     0.035 C 
ATOM     12  C   UNL     1      -7.639   0.668  -0.518  1.00  0.00     0.018 C 
ATOM     13  C   UNL     1      -6.913  -0.797  -2.140  1.00  0.00    -0.025 C 
ATOM     14  C   UNL     1      -7.027  -0.573   0.145  1.00  0.00     0.026 C 
ATOM     15  C   UNL     1      -7.114  -1.523  -1.030  1.00  0.00    -0.027 C 
ATOM     16  C   UNL     1      -5.546  -0.136   0.317  1.00  0.00     0.108 C 
BRANCH  16  17
ATOM     17  C   UNL     1      -5.423   0.601   1.639  1.00  0.00     0.223 C 
ATOM     18  N   UNL     1      -5.231  -0.204   2.728  1.00  0.00    -0.369 N 
ATOM     19  O   UNL     1      -5.565   1.810   1.787  1.00  0.00    -0.275 OA
ATOM     20  H   UNL     1      -4.837  -1.130   2.631  1.00  0.00     0.159 HD
ATOM     21  H   UNL     1      -5.066   0.274   3.605  1.00  0.00     0.159 HD
ENDBRANCH  16  17
ENDBRANCH   8  10
ENDBRANCH   1   8
BRANCH   6  22
ATOM     22  N   UNL     1      -0.540   0.181  -0.357  1.00  0.00    -0.324 N 
ATOM     23  H   UNL     1      -1.115  -0.579  -0.687  1.00  0.00     0.170 HD
BRANCH  22  24
ATOM     24  C   UNL     1       0.822  -0.087  -0.191  1.00  0.00     0.041 A 
ATOM     25  C   UNL     1       1.765   0.867   0.187  1.00  0.00     0.028 A 
ATOM     26  C   UNL     1       1.277  -1.400  -0.393  1.00  0.00     0.031 A 
ATOM     27  C   UNL     1       3.115   0.528   0.346  1.00  0.00     0.028 A 
ATOM     28  C   UNL     1       2.629  -1.759  -0.231  1.00  0.00    -0.026 A 
ATOM     29  C   UNL     1       3.569  -0.782   0.142  1.00  0.00     0.040 A 
ATOM     30  C   UNL     1       3.049  -3.184  -0.467  1.00  0.00     0.046 C 
BRANCH  29  31
ATOM     31  N   UNL     1       4.924  -1.132   0.273  1.00  0.00    -0.369 N 
ATOM     32  C   UNL     1       5.705  -0.768  -0.933  1.00  0.00     0.132 C 
ATOM     33  C   UNL     1       5.565  -0.758   1.556  1.00  0.00     0.132 C 
ATOM     34  C   UNL     1       7.215  -0.937  -0.656  1.00  0.00     0.105 C 
ATOM     35  C   UNL     1       6.673   0.306   1.380  1.00  0.00     0.105 C 
ATOM     36  N   UNL     1       7.727  -0.027   0.396  1.00  0.00    -0.303 NA
ATOM     37  C   UNL     1       8.908  -0.600   1.036  1.00  0.00     0.105 C 
ENDBRANCH  29  31
ENDBRANCH  22  24
ENDBRANCH   6  22
TORSDOF 6
