REMARK SMILES COc1ccc(C(=O)Nc2ccccc2CCC2CCCCN2C)cc1
REMARK SMILES IDX 10 1 11 2 12 3 13 4 14 5 15 6 9 7 7 8 8 9 6 11 3 12 4 13
REMARK SMILES IDX 26 14 5 15 25 16 2 17 1 18 16 19 17 20 18 21 19 22 23 23
REMARK SMILES IDX 20 24 22 25 24 26 21 27
REMARK H PARENT 9 10
REMARK Flexibility Score: inf
ROOT
ATOM      1  C   UNL     1       0.295  -2.189   0.336  1.00  0.00     0.044 A 
ATOM      2  C   UNL     1       0.144  -3.529  -0.049  1.00  0.00     0.026 A 
ATOM      3  C   UNL     1      -1.042  -4.221   0.196  1.00  0.00     0.002 A 
ATOM      4  C   UNL     1      -2.093  -3.583   0.838  1.00  0.00     0.000 A 
ATOM      5  C   UNL     1      -1.961  -2.252   1.231  1.00  0.00     0.006 A 
ATOM      6  C   UNL     1      -0.783  -1.524   0.981  1.00  0.00    -0.024 A 
ENDROOT
BRANCH   1   7
ATOM      7  N   UNL     1       1.511  -1.491   0.124  1.00  0.00    -0.322 N 
ATOM      8  C   UNL     1       2.625  -1.913  -0.579  1.00  0.00     0.255 C 
ATOM      9  O   UNL     1       2.746  -2.940  -1.235  1.00  0.00    -0.269 OA
ATOM     10  H   UNL     1       1.543  -0.546   0.475  1.00  0.00     0.170 HD
BRANCH   8  11
ATOM     11  C   UNL     1       3.772  -0.961  -0.553  1.00  0.00     0.040 A 
ATOM     12  C   UNL     1       5.956   0.804  -0.586  1.00  0.00     0.118 A 
ATOM     13  C   UNL     1       5.655   0.042  -1.715  1.00  0.00     0.047 A 
ATOM     14  C   UNL     1       5.169   0.670   0.562  1.00  0.00     0.047 A 
ATOM     15  C   UNL     1       4.570  -0.842  -1.697  1.00  0.00     0.017 A 
ATOM     16  C   UNL     1       4.084  -0.212   0.587  1.00  0.00     0.017 A 
BRANCH  12  17
ATOM     17  O   UNL     1       6.982   1.701  -0.470  1.00  0.00    -0.497 OA
ATOM     18  C   UNL     1       7.837   1.849  -1.597  1.00  0.00     0.278 C 
ENDBRANCH  12  17
ENDBRANCH   8  11
ENDBRANCH   1   7
BRANCH   6  19
ATOM     19  C   UNL     1      -0.652  -0.074   1.423  1.00  0.00     0.039 C 
BRANCH  19  20
ATOM     20  C   UNL     1      -1.863   0.710   1.963  1.00  0.00     0.024 C 
BRANCH  20  21
ATOM     21  C   UNL     1      -2.757   1.375   0.887  1.00  0.00     0.056 C 
ATOM     22  C   UNL     1      -3.735   2.349   1.582  1.00  0.00     0.019 C 
ATOM     23  N   UNL     1      -3.435   0.359   0.061  1.00  0.00    -0.303 NA
ATOM     24  C   UNL     1      -4.745   2.913   0.590  1.00  0.00     0.003 C 
ATOM     25  C   UNL     1      -4.897   0.419   0.117  1.00  0.00     0.084 C 
ATOM     26  C   UNL     1      -2.948   0.360  -1.319  1.00  0.00     0.105 C 
ATOM     27  C   UNL     1      -5.470   1.807  -0.173  1.00  0.00     0.016 C 
ENDBRANCH  20  21
ENDBRANCH  19  20
ENDBRANCH   6  19
TORSDOF 6
