REMARK SMILES CC(COc1ccccc1)NC(C)C(O)c1ccc(O)cc1
REMARK SMILES IDX 11 1 2 3 1 4 3 5 4 6 5 7 6 8 10 9 7 10 9 11 8 12 12 13 13 14
REMARK SMILES IDX 14 15 15 16 16 18 17 19 22 20 18 21 21 22 19 23 20 24
REMARK H PARENT 11 2 15 17 20 25
REMARK Flexibility Score: inf
ROOT
ATOM      1  N   UNL     1       0.187  -0.413  -0.475  1.00  0.00    -0.306 NA
ATOM      2  H   UNL     1       0.762   0.387  -0.187  1.00  0.00     0.123 HD
ENDROOT
BRANCH   1   3
ATOM      3  C   UNL     1       0.862  -1.624   0.046  1.00  0.00     0.088 C 
ATOM      4  C   UNL     1       0.392  -2.862  -0.718  1.00  0.00     0.028 C 
BRANCH   3   5
ATOM      5  C   UNL     1       2.394  -1.469  -0.102  1.00  0.00     0.248 C 
BRANCH   5   6
ATOM      6  O   UNL     1       2.806  -0.350   0.692  1.00  0.00    -0.492 OA
BRANCH   6   7
ATOM      7  C   UNL     1       4.138  -0.041   0.689  1.00  0.00     0.119 A 
ATOM      8  C   UNL     1       5.136  -0.712  -0.019  1.00  0.00     0.046 A 
ATOM      9  C   UNL     1       4.483   1.056   1.484  1.00  0.00     0.046 A 
ATOM     10  C   UNL     1       6.465  -0.286   0.069  1.00  0.00     0.004 A 
ATOM     11  C   UNL     1       5.810   1.481   1.572  1.00  0.00     0.004 A 
ATOM     12  C   UNL     1       6.802   0.808   0.864  1.00  0.00     0.000 A 
ENDBRANCH   6   7
ENDBRANCH   5   6
ENDBRANCH   3   5
ENDBRANCH   1   3
BRANCH   1  13
ATOM     13  C   UNL     1      -1.179  -0.232   0.091  1.00  0.00     0.084 C 
ATOM     14  C   UNL     1      -1.089   0.669   1.331  1.00  0.00     0.027 C 
BRANCH  13  15
ATOM     15  C   UNL     1      -2.091   0.373  -1.022  1.00  0.00     0.161 C 
BRANCH  15  16
ATOM     16  O   UNL     1      -1.491   1.570  -1.533  1.00  0.00    -0.387 OA
ATOM     17  H   UNL     1      -0.581   1.294  -1.753  1.00  0.00     0.211 HD
ENDBRANCH  15  16
BRANCH  15  18
ATOM     18  C   UNL     1      -3.521   0.618  -0.580  1.00  0.00    -0.018 A 
ATOM     19  C   UNL     1      -4.388  -0.472  -0.394  1.00  0.00     0.010 A 
ATOM     20  C   UNL     1      -4.010   1.911  -0.335  1.00  0.00     0.010 A 
ATOM     21  C   UNL     1      -5.703  -0.273   0.028  1.00  0.00     0.046 A 
ATOM     22  C   UNL     1      -5.327   2.113   0.086  1.00  0.00     0.046 A 
ATOM     23  C   UNL     1      -6.162   1.016   0.265  1.00  0.00     0.115 A 
BRANCH  23  24
ATOM     24  O   UNL     1      -7.454   1.166   0.675  1.00  0.00    -0.508 OA
ATOM     25  H   UNL     1      -7.634   2.115   0.777  1.00  0.00     0.293 HD
ENDBRANCH  23  24
ENDBRANCH  15  18
ENDBRANCH  13  15
ENDBRANCH   1  13
TORSDOF 9
