REMARK SMILES Nc1ccc(S(=O)(=O)Nc2ncccn2)cc1
REMARK SMILES IDX 6 1 7 2 8 3 5 4 2 5 3 6 17 7 4 8 16 9 1 10 9 13 10 15 11 16
REMARK SMILES IDX 15 17 12 18 14 19 13 20
REMARK H PARENT 1 11 1 12 9 14
REMARK Flexibility Score: inf
ROOT
ATOM      1  S   UNL     1       0.405   0.750  -2.061  1.00  0.00     0.264 S 
ATOM      2  O   UNL     1       1.204   1.912  -1.735  1.00  0.00    -0.201 OA
ATOM      3  O   UNL     1      -0.165   0.614  -3.388  1.00  0.00    -0.201 OA
ENDROOT
BRANCH   1   4
ATOM      4  C   UNL     1      -0.952   0.627  -0.923  1.00  0.00     0.088 A 
ATOM      5  C   UNL     1      -3.152   0.485   0.803  1.00  0.00     0.031 A 
ATOM      6  C   UNL     1      -3.032  -0.406  -0.269  1.00  0.00     0.027 A 
ATOM      7  C   UNL     1      -2.120   1.399   1.042  1.00  0.00     0.027 A 
ATOM      8  C   UNL     1      -1.950  -0.323  -1.149  1.00  0.00     0.024 A 
ATOM      9  C   UNL     1      -1.032   1.493   0.169  1.00  0.00     0.024 A 
BRANCH   5  10
ATOM     10  N   UNL     1      -4.175   0.319   1.745  1.00  0.00    -0.399 N 
ATOM     11  H   UNL     1      -4.377   1.157   2.281  1.00  0.00     0.156 HD
ATOM     12  H   UNL     1      -5.015  -0.106   1.365  1.00  0.00     0.156 HD
ENDBRANCH   5  10
ENDBRANCH   1   4
BRANCH   1  13
ATOM     13  N   UNL     1       1.276  -0.637  -1.799  1.00  0.00    -0.247 N 
ATOM     14  H   UNL     1       1.660  -1.045  -2.642  1.00  0.00     0.183 HD
BRANCH  13  15
ATOM     15  C   UNL     1       2.162  -0.648  -0.730  1.00  0.00     0.236 A 
ATOM     16  N   UNL     1       3.271  -1.354  -0.971  1.00  0.00    -0.221 NA
ATOM     17  N   UNL     1       1.760  -0.184   0.454  1.00  0.00    -0.221 NA
ATOM     18  C   UNL     1       4.092  -1.517   0.084  1.00  0.00     0.117 A 
ATOM     19  C   UNL     1       2.616  -0.375   1.474  1.00  0.00     0.117 A 
ATOM     20  C   UNL     1       3.814  -1.038   1.343  1.00  0.00     0.040 A 
ENDBRANCH  13  15
ENDBRANCH   1  13
TORSDOF 4
