REMARK SMILES O=C1Cc2cc(CCN3CCN(c4nsc5ccccc45)CC3)c(Cl)cc2N1
REMARK SMILES IDX 8 1 7 2 6 3 1 4 2 5 3 6 28 7 4 8 27 9 5 11 26 12 24 13 25 14
REMARK SMILES IDX 9 15 10 16 23 17 11 18 22 19 12 20 13 21 14 22 21 23 15 24
REMARK SMILES IDX 16 25 20 26 17 27 19 28 18 29
REMARK H PARENT 28 10
REMARK Flexibility Score: inf
ROOT
ATOM      1  C   UNL     1       1.267  -0.217   0.415  1.00  0.00     0.089 C 
ENDROOT
BRANCH   1   2
ATOM      2  C   UNL     1       2.093   0.989  -0.067  1.00  0.00     0.052 C 
BRANCH   2   3
ATOM      3  C   UNL     1       3.413   0.561  -0.677  1.00  0.00    -0.028 A 
ATOM      4  O   UNL     1       9.172  -0.711  -0.898  1.00  0.00    -0.274 OA
ATOM      5  C   UNL     1       7.978  -0.469  -0.927  1.00  0.00     0.228 C 
ATOM      6  C   UNL     1       7.117   0.038   0.236  1.00  0.00     0.138 C 
ATOM      7  N   UNL     1       7.148  -0.605  -2.034  1.00  0.00    -0.325 N 
ATOM      8  C   UNL     1       5.762   0.144  -0.399  1.00  0.00    -0.015 A 
ATOM      9  C   UNL     1       5.844  -0.247  -1.732  1.00  0.00     0.046 A 
ATOM     10  H   UNL     1       7.483  -0.927  -2.930  1.00  0.00     0.169 HD
ATOM     11  C   UNL     1       4.557   0.549   0.146  1.00  0.00     0.011 A 
ATOM     12  C   UNL     1       4.752  -0.255  -2.570  1.00  0.00     0.047 A 
ATOM     13  C   UNL     1       3.526   0.152  -2.031  1.00  0.00     0.046 A 
ATOM     14  Cl  UNL     1       2.156   0.133  -3.087  1.00  0.00    -0.084 Cl
ENDBRANCH   2   3
ENDBRANCH   1   2
BRANCH   1  15
ATOM     15  N   UNL     1       0.023   0.169   1.105  1.00  0.00    -0.299 NA
ATOM     16  C   UNL     1      -0.909   0.878   0.194  1.00  0.00     0.106 C 
ATOM     17  C   UNL     1      -0.641  -1.012   1.712  1.00  0.00     0.106 C 
ATOM     18  C   UNL     1      -2.389   0.836   0.644  1.00  0.00     0.133 C 
ATOM     19  C   UNL     1      -1.835  -1.572   0.909  1.00  0.00     0.133 C 
ATOM     20  N   UNL     1      -2.888  -0.549   0.758  1.00  0.00    -0.353 N 
BRANCH  20  21
ATOM     21  C   UNL     1      -4.036  -0.908   0.094  1.00  0.00     0.150 A 
ATOM     22  N   UNL     1      -4.106  -1.984  -0.689  1.00  0.00    -0.174 NA
ATOM     23  C   UNL     1      -5.285  -0.163   0.234  1.00  0.00     0.037 A 
ATOM     24  S   UNL     1      -5.602  -2.095  -1.361  1.00  0.00    -0.034 S 
ATOM     25  C   UNL     1      -6.274  -0.730  -0.574  1.00  0.00     0.057 A 
ATOM     26  C   UNL     1      -5.656   0.961   1.019  1.00  0.00     0.013 A 
ATOM     27  C   UNL     1      -7.578  -0.209  -0.659  1.00  0.00     0.021 A 
ATOM     28  C   UNL     1      -6.951   1.487   0.947  1.00  0.00     0.001 A 
ATOM     29  C   UNL     1      -7.898   0.910   0.112  1.00  0.00     0.002 A 
ENDBRANCH  20  21
ENDBRANCH   1  15
TORSDOF 4
