REMARK SMILES O=C(NCCO[N+](=O)[O-])c1cccnc1
REMARK SMILES IDX 4 1 3 2 1 3 2 4 10 6 11 7 15 8 12 9 14 10 13 11 5 12 6 13
REMARK SMILES IDX 7 14 8 15 9 16
REMARK H PARENT 3 5
REMARK Flexibility Score: inf
ROOT
ATOM      1  C   UNL     1       1.774  -1.599   0.108  1.00  0.00     0.144 C 
ENDROOT
BRANCH   1   2
ATOM      2  N   UNL     1       0.640  -0.691   0.142  1.00  0.00    -0.350 N 
ATOM      3  O   UNL     1      -0.717  -2.122  -1.021  1.00  0.00    -0.269 OA
ATOM      4  C   UNL     1      -0.544  -1.035  -0.478  1.00  0.00     0.252 C 
ATOM      5  H   UNL     1       0.819   0.286   0.363  1.00  0.00     0.163 HD
BRANCH   4   6
ATOM      6  C   UNL     1      -1.621  -0.016  -0.502  1.00  0.00     0.058 A 
ATOM      7  C   UNL     1      -2.620  -0.095  -1.475  1.00  0.00     0.017 A 
ATOM      8  C   UNL     1      -1.707   1.012   0.429  1.00  0.00     0.124 A 
ATOM      9  C   UNL     1      -3.639   0.855  -1.496  1.00  0.00     0.021 A 
ATOM     10  N   UNL     1      -2.685   1.952   0.430  1.00  0.00    -0.264 NA
ATOM     11  C   UNL     1      -3.627   1.852  -0.534  1.00  0.00     0.111 A 
ENDBRANCH   4   6
ENDBRANCH   1   2
BRANCH   1  12
ATOM     12  C   UNL     1       2.939  -1.143   0.989  1.00  0.00     0.229 C 
BRANCH  12  13
ATOM     13  O   UNL     1       3.799  -0.233   0.303  1.00  0.00    -0.312 OA
BRANCH  13  14
ATOM     14  N   UNL     1       3.403   1.121   0.398  1.00  0.00     0.294 N 
ATOM     15  O   UNL     1       4.211   1.891  -0.114  1.00  0.00    -0.109 OA
ATOM     16  O   UNL     1       2.318   1.358   0.936  1.00  0.00    -0.109 OA
ENDBRANCH  13  14
ENDBRANCH  12  13
ENDBRANCH   1  12
TORSDOF 5
