REMARK SMILES COc1ccc2c(c1OC)C(=O)O[C@@H]2[C@H]1c2c(cc3c(c2OC)OCO3)CCN1C
REMARK SMILES IDX 15 1 16 2 17 3 18 4 19 5 20 6 21 7 24 8 25 9 26 10 27 11
REMARK SMILES IDX 28 12 29 13 30 14 14 15 3 16 4 17 8 18 5 19 7 20 6 21 11 22
REMARK SMILES IDX 12 23 13 24 2 25 1 26 9 27 10 28 22 29 23 30
REMARK H PARENT
REMARK Flexibility Score: inf
ROOT
ATOM      1  C   UNL     1      -0.635   0.281  -0.536  1.00  0.00     0.137 C 
ATOM      2  C   UNL     1      -2.150   0.210  -0.270  1.00  0.00     0.023 A 
ATOM      3  C   UNL     1      -2.935  -0.065  -1.434  1.00  0.00    -0.034 A 
ATOM      4  C   UNL     1      -4.321  -0.224  -1.359  1.00  0.00     0.055 A 
ATOM      5  C   UNL     1      -4.909  -0.052  -0.129  1.00  0.00     0.169 A 
ATOM      6  C   UNL     1      -4.180   0.263   0.998  1.00  0.00     0.207 A 
ATOM      7  C   UNL     1      -2.797   0.400   0.964  1.00  0.00     0.170 A 
ATOM      8  O   UNL     1      -4.994   0.442   2.079  1.00  0.00    -0.450 OA
ATOM      9  C   UNL     1      -6.290   0.171   1.515  1.00  0.00     0.468 C 
ATOM     10  O   UNL     1      -6.247  -0.134   0.110  1.00  0.00    -0.453 OA
ATOM     11  C   UNL     1      -2.205  -0.172  -2.752  1.00  0.00     0.051 C 
ATOM     12  C   UNL     1      -1.113   0.914  -2.870  1.00  0.00     0.089 C 
ATOM     13  N   UNL     1      -0.367   1.259  -1.635  1.00  0.00    -0.295 NA
ATOM     14  C   UNL     1      -0.650   2.641  -1.230  1.00  0.00     0.106 C 
ENDROOT
BRANCH   1  15
ATOM     15  C   UNL     1       0.346   0.383   0.682  1.00  0.00     0.230 C 
ATOM     16  C   UNL     1       4.510  -0.357   0.047  1.00  0.00     0.161 A 
ATOM     17  C   UNL     1       3.966   0.791  -0.552  1.00  0.00     0.051 A 
ATOM     18  C   UNL     1       3.672  -1.203   0.792  1.00  0.00     0.175 A 
ATOM     19  C   UNL     1       2.610   1.111  -0.401  1.00  0.00     0.012 A 
ATOM     20  C   UNL     1       2.336  -0.859   0.934  1.00  0.00     0.112 A 
ATOM     21  C   UNL     1       1.798   0.270   0.345  1.00  0.00     0.013 A 
ATOM     22  C   UNL     1       1.285  -1.548   1.668  1.00  0.00     0.343 C 
ATOM     23  O   UNL     1       1.353  -2.599   2.271  1.00  0.00    -0.246 OA
ATOM     24  O   UNL     1       0.164  -0.785   1.536  1.00  0.00    -0.452 OA
BRANCH  16  25
ATOM     25  O   UNL     1       5.824  -0.736  -0.043  1.00  0.00    -0.493 OA
ATOM     26  C   UNL     1       6.726   0.169  -0.664  1.00  0.00     0.278 C 
ENDBRANCH  16  25
BRANCH  18  27
ATOM     27  O   UNL     1       4.185  -2.293   1.442  1.00  0.00    -0.492 OA
ATOM     28  C   UNL     1       4.163  -3.436   0.589  1.00  0.00     0.278 C 
ENDBRANCH  18  27
ENDBRANCH   1  15
BRANCH   7  29
ATOM     29  O   UNL     1      -2.059   0.806   2.037  1.00  0.00    -0.492 OA
ATOM     30  C   UNL     1      -2.403   0.180   3.272  1.00  0.00     0.278 C 
ENDBRANCH   7  29
TORSDOF 4
