REMARK SMILES COc1ccc2c3c1O[C@H]1C(=O)CC[C@@]4(O)[C@@H](C2)N(C)CC[C@]314
REMARK SMILES IDX 3 1 4 2 5 3 6 4 7 5 8 6 9 7 10 8 11 9 12 10 13 11 14 12
REMARK SMILES IDX 15 13 17 14 18 15 19 16 20 17 21 18 22 19 23 20 2 21 1 22
REMARK SMILES IDX 16 23
REMARK H PARENT 16 24
REMARK Flexibility Score: inf
ROOT
ATOM      1  C   UNL     1       3.092   0.066   0.531  1.00  0.00     0.161 A 
ATOM      2  C   UNL     1       2.825   0.794   1.702  1.00  0.00     0.051 A 
ATOM      3  C   UNL     1       1.501   1.125   2.080  1.00  0.00     0.008 A 
ATOM      4  C   UNL     1       0.424   0.771   1.269  1.00  0.00    -0.038 A 
ATOM      5  C   UNL     1       0.724   0.108   0.094  1.00  0.00     0.015 A 
ATOM      6  C   UNL     1       2.005  -0.287  -0.246  1.00  0.00     0.166 A 
ATOM      7  O   UNL     1       2.008  -1.076  -1.376  1.00  0.00    -0.477 OA
ATOM      8  C   UNL     1       0.614  -1.496  -1.496  1.00  0.00     0.253 C 
ATOM      9  C   UNL     1       0.411  -2.835  -0.761  1.00  0.00     0.174 C 
ATOM     10  O   UNL     1       1.293  -3.695  -0.691  1.00  0.00    -0.295 OA
ATOM     11  C   UNL     1      -0.963  -3.128  -0.202  1.00  0.00     0.083 C 
ATOM     12  C   UNL     1      -1.492  -1.943   0.600  1.00  0.00     0.046 C 
ATOM     13  C   UNL     1      -1.580  -0.690  -0.285  1.00  0.00     0.095 C 
ATOM     14  C   UNL     1      -2.014   0.615   0.489  1.00  0.00     0.093 C 
ATOM     15  C   UNL     1      -1.022   0.963   1.649  1.00  0.00     0.058 C 
ATOM     16  N   UNL     1      -2.072   1.823  -0.379  1.00  0.00    -0.300 NA
ATOM     17  C   UNL     1      -3.327   2.553  -0.244  1.00  0.00     0.105 C 
ATOM     18  C   UNL     1      -1.713   1.617  -1.782  1.00  0.00     0.086 C 
ATOM     19  C   UNL     1      -0.432   0.790  -1.991  1.00  0.00     0.035 C 
ATOM     20  C   UNL     1      -0.246  -0.347  -0.950  1.00  0.00     0.075 C 
ENDROOT
BRANCH   1  21
ATOM     21  O   UNL     1       4.318  -0.340   0.096  1.00  0.00    -0.493 OA
ATOM     22  C   UNL     1       5.431  -0.032   0.922  1.00  0.00     0.278 C 
ENDBRANCH   1  21
BRANCH  13  23
ATOM     23  O   UNL     1      -2.542  -1.028  -1.304  1.00  0.00    -0.387 OA
ATOM     24  H   UNL     1      -3.412  -0.702  -1.012  1.00  0.00     0.211 HD
ENDBRANCH  13  23
TORSDOF 2
