REMARK SMILES C[C@@H](Oc1cc(C(=O)Nc2ccc(C(=O)N3CCN(C)CC3)cc2)nnc1N)c1c(Cl)ccc(F)c1Cl
REMARK SMILES IDX 4 1 5 2 6 3 25 4 26 5 27 6 3 7 2 8 1 9 29 10 30 11 36 12
REMARK SMILES IDX 31 13 32 14 34 15 37 16 33 17 35 18 28 19 7 22 8 23 9 24
REMARK SMILES IDX 10 26 11 27 24 28 12 29 23 30 13 31 14 32 15 33 16 34 17 35
REMARK SMILES IDX 22 36 18 37 21 38 19 39 20 40
REMARK H PARENT 28 20 28 21 9 25
REMARK Flexibility Score: inf
ROOT
ATOM      1  C   UNL     1      -4.486   0.084   0.763  1.00  0.00     0.166 A 
ATOM      2  C   UNL     1      -3.380   0.296  -0.052  1.00  0.00     0.086 A 
ATOM      3  C   UNL     1      -2.162  -0.188   0.381  1.00  0.00     0.155 A 
ATOM      4  N   UNL     1      -2.022  -0.836   1.562  1.00  0.00    -0.143 NA
ATOM      5  N   UNL     1      -3.117  -1.000   2.378  1.00  0.00    -0.128 NA
ATOM      6  C   UNL     1      -4.330  -0.537   2.005  1.00  0.00     0.188 A 
ENDROOT
BRANCH   1   7
ATOM      7  O   UNL     1      -5.685   0.612   0.358  1.00  0.00    -0.482 OA
BRANCH   7   8
ATOM      8  C   UNL     1      -6.564  -0.347  -0.260  1.00  0.00     0.203 C 
ATOM      9  C   UNL     1      -6.068  -0.864  -1.619  1.00  0.00     0.058 C 
BRANCH   8  10
ATOM     10  C   UNL     1      -7.941   0.303  -0.370  1.00  0.00     0.032 A 
ATOM     11  C   UNL     1      -9.075  -0.292   0.235  1.00  0.00     0.049 A 
ATOM     12  C   UNL     1      -8.149   1.518  -1.071  1.00  0.00     0.085 A 
ATOM     13  Cl  UNL     1      -8.984  -1.762   1.150  1.00  0.00    -0.084 Cl
ATOM     14  C   UNL     1     -10.352   0.284   0.131  1.00  0.00     0.024 A 
ATOM     15  C   UNL     1      -9.433   2.072  -1.176  1.00  0.00     0.142 A 
ATOM     16  Cl  UNL     1      -6.861   2.407  -1.814  1.00  0.00    -0.081 Cl
ATOM     17  C   UNL     1     -10.534   1.459  -0.593  1.00  0.00     0.042 A 
ATOM     18  F   UNL     1      -9.632   3.216  -1.850  1.00  0.00    -0.205 F 
ENDBRANCH   8  10
ENDBRANCH   7   8
ENDBRANCH   1   7
BRANCH   6  19
ATOM     19  N   UNL     1      -5.407  -0.671   2.897  1.00  0.00    -0.379 N 
ATOM     20  H   UNL     1      -6.132  -1.259   2.497  1.00  0.00     0.158 HD
ATOM     21  H   UNL     1      -5.813   0.249   3.055  1.00  0.00     0.158 HD
ENDBRANCH   6  19
BRANCH   3  22
ATOM     22  C   UNL     1      -0.927  -0.015  -0.436  1.00  0.00     0.276 C 
ATOM     23  O   UNL     1      -1.009   0.526  -1.533  1.00  0.00    -0.267 OA
ATOM     24  N   UNL     1       0.216  -0.520   0.162  1.00  0.00    -0.321 N 
ATOM     25  H   UNL     1       0.065  -0.982   1.056  1.00  0.00     0.170 HD
BRANCH  24  26
ATOM     26  C   UNL     1       1.532  -0.502  -0.337  1.00  0.00     0.041 A 
ATOM     27  C   UNL     1       1.904   0.126  -1.528  1.00  0.00     0.027 A 
ATOM     28  C   UNL     1       2.510  -1.164   0.417  1.00  0.00     0.027 A 
ATOM     29  C   UNL     1       3.234   0.095  -1.961  1.00  0.00     0.016 A 
ATOM     30  C   UNL     1       3.840  -1.205  -0.014  1.00  0.00     0.016 A 
ATOM     31  C   UNL     1       4.205  -0.556  -1.197  1.00  0.00     0.040 A 
BRANCH  31  32
ATOM     32  C   UNL     1       5.594  -0.611  -1.710  1.00  0.00     0.253 C 
ATOM     33  O   UNL     1       5.756  -0.966  -2.877  1.00  0.00    -0.269 OA
ATOM     34  N   UNL     1       6.650  -0.278  -0.863  1.00  0.00    -0.336 N 
ATOM     35  C   UNL     1       8.012  -0.412  -1.383  1.00  0.00     0.135 C 
ATOM     36  C   UNL     1       6.519   0.452   0.407  1.00  0.00     0.135 C 
ATOM     37  C   UNL     1       9.045  -0.470  -0.247  1.00  0.00     0.105 C 
ATOM     38  C   UNL     1       7.719   1.383   0.676  1.00  0.00     0.105 C 
ATOM     39  N   UNL     1       9.046   0.737   0.609  1.00  0.00    -0.303 NA
ATOM     40  C   UNL     1       9.584   0.440   1.934  1.00  0.00     0.105 C 
ENDBRANCH  31  32
ENDBRANCH  24  26
ENDBRANCH   3  22
TORSDOF 7
