REMARK SMILES O=C(O)COc1nn(Cc2ccccc2)c2ccccc12
REMARK SMILES IDX 5 1 4 2 2 3 1 4 3 5 6 7 7 8 21 9 8 10 16 11 20 12 17 13
REMARK SMILES IDX 19 14 18 15 9 16 10 17 11 18 15 19 12 20 14 21 13 22
REMARK H PARENT 3 6
REMARK Flexibility Score: inf
ROOT
ATOM      1  O   UNL     1      -3.054   0.069  -0.832  1.00  0.00    -0.464 OA
ENDROOT
BRANCH   1   2
ATOM      2  C   UNL     1      -3.065   0.317  -2.232  1.00  0.00     0.353 C 
BRANCH   2   3
ATOM      3  C   UNL     1      -4.448   0.731  -2.688  1.00  0.00     0.341 C 
ATOM      4  O   UNL     1      -4.698   1.518  -3.589  1.00  0.00    -0.248 OA
BRANCH   3   5
ATOM      5  O   UNL     1      -5.457   0.101  -2.051  1.00  0.00    -0.479 OA
ATOM      6  H   UNL     1      -6.266   0.465  -2.464  1.00  0.00     0.296 HD
ENDBRANCH   3   5
ENDBRANCH   2   3
ENDBRANCH   1   2
BRANCH   1   7
ATOM      7  C   UNL     1      -1.855  -0.321  -0.348  1.00  0.00     0.241 A 
ATOM      8  N   UNL     1      -0.796  -0.439  -1.149  1.00  0.00    -0.133 NA
ATOM      9  C   UNL     1      -1.579  -0.644   0.997  1.00  0.00     0.064 A 
ATOM     10  N   UNL     1       0.189  -0.826  -0.302  1.00  0.00    -0.257 N 
ATOM     11  C   UNL     1      -0.226  -0.978   1.003  1.00  0.00     0.073 A 
ATOM     12  C   UNL     1      -2.310  -0.693   2.198  1.00  0.00     0.016 A 
ATOM     13  C   UNL     1       0.443  -1.364   2.173  1.00  0.00     0.029 A 
ATOM     14  C   UNL     1      -1.655  -1.078   3.373  1.00  0.00     0.001 A 
ATOM     15  C   UNL     1      -0.300  -1.407   3.358  1.00  0.00     0.002 A 
BRANCH  10  16
ATOM     16  C   UNL     1       1.521  -1.093  -0.833  1.00  0.00     0.180 C 
BRANCH  16  17
ATOM     17  C   UNL     1       2.500   0.010  -0.511  1.00  0.00    -0.026 A 
ATOM     18  C   UNL     1       2.274   1.322  -0.955  1.00  0.00     0.005 A 
ATOM     19  C   UNL     1       3.670  -0.266   0.213  1.00  0.00     0.005 A 
ATOM     20  C   UNL     1       3.187   2.337  -0.667  1.00  0.00     0.000 A 
ATOM     21  C   UNL     1       4.582   0.751   0.499  1.00  0.00     0.000 A 
ATOM     22  C   UNL     1       4.340   2.052   0.061  1.00  0.00     0.000 A 
ENDBRANCH  16  17
ENDBRANCH  10  16
ENDBRANCH   1   7
TORSDOF 6
