REMARK SMILES NS(=O)(=O)c1cc2c(cc1C(F)(F)F)NC(Cc1ccccc1)NS2(=O)=O
REMARK SMILES IDX 5 1 6 2 7 3 8 4 9 5 10 6 15 7 16 8 24 9 25 10 26 11 27 12
REMARK SMILES IDX 2 15 3 16 4 17 1 18 11 21 12 22 13 23 14 24 17 25 18 26
REMARK SMILES IDX 19 27 23 28 20 29 22 30 21 31
REMARK H PARENT 15 13 24 14 1 19 1 20
REMARK Flexibility Score: inf
ROOT
ATOM      1  C   UNL     1      -3.646   0.251   0.480  1.00  0.00     0.095 A 
ATOM      2  C   UNL     1      -2.556   1.009   0.924  1.00  0.00     0.046 A 
ATOM      3  C   UNL     1      -1.274   0.713   0.450  1.00  0.00     0.107 A 
ATOM      4  C   UNL     1      -1.030  -0.336  -0.435  1.00  0.00     0.056 A 
ATOM      5  C   UNL     1      -2.142  -1.057  -0.895  1.00  0.00     0.041 A 
ATOM      6  C   UNL     1      -3.459  -0.789  -0.450  1.00  0.00     0.078 A 
ATOM      7  N   UNL     1       0.225  -0.601  -0.999  1.00  0.00    -0.368 N 
ATOM      8  C   UNL     1       1.401  -0.132  -0.275  1.00  0.00     0.166 C 
ATOM      9  N   UNL     1       1.259   1.301  -0.133  1.00  0.00    -0.189 NA
ATOM     10  S   UNL     1       0.072   1.725   0.961  1.00  0.00     0.244 S 
ATOM     11  O   UNL     1       0.468   1.276   2.275  1.00  0.00    -0.207 OA
ATOM     12  O   UNL     1      -0.279   3.098   0.674  1.00  0.00    -0.207 OA
ATOM     13  H   UNL     1       0.315  -1.579  -1.271  1.00  0.00     0.162 HD
ATOM     14  H   UNL     1       1.150   1.804  -1.009  1.00  0.00     0.143 HD
ENDROOT
BRANCH   1  15
ATOM     15  S   UNL     1      -5.251   0.626   1.164  1.00  0.00     0.238 S 
ATOM     16  O   UNL     1      -5.962  -0.616   1.334  1.00  0.00    -0.207 OA
ATOM     17  O   UNL     1      -5.065   1.560   2.248  1.00  0.00    -0.207 OA
BRANCH  15  18
ATOM     18  N   UNL     1      -5.980   1.456  -0.095  1.00  0.00    -0.225 NA
ATOM     19  H   UNL     1      -6.707   0.874  -0.521  1.00  0.00     0.137 HD
ATOM     20  H   UNL     1      -5.343   1.857  -0.779  1.00  0.00     0.137 HD
ENDBRANCH  15  18
ENDBRANCH   1  15
BRANCH   6  21
ATOM     21  C   UNL     1      -4.588  -1.633  -1.000  1.00  0.00     0.417 C 
ATOM     22  F   UNL     1      -4.980  -2.620  -0.158  1.00  0.00    -0.166 F 
ATOM     23  F   UNL     1      -5.691  -0.907  -1.330  1.00  0.00    -0.166 F 
ATOM     24  F   UNL     1      -4.236  -2.266  -2.158  1.00  0.00    -0.166 F 
ENDBRANCH   6  21
BRANCH   8  25
ATOM     25  C   UNL     1       2.669  -0.453  -1.098  1.00  0.00     0.077 C 
BRANCH  25  26
ATOM     26  C   UNL     1       3.946  -0.351  -0.296  1.00  0.00    -0.045 A 
ATOM     27  C   UNL     1       4.554   0.893  -0.077  1.00  0.00     0.004 A 
ATOM     28  C   UNL     1       4.530  -1.498   0.260  1.00  0.00     0.004 A 
ATOM     29  C   UNL     1       5.724   0.986   0.678  1.00  0.00     0.000 A 
ATOM     30  C   UNL     1       5.701  -1.402   1.014  1.00  0.00     0.000 A 
ATOM     31  C   UNL     1       6.297  -0.161   1.223  1.00  0.00     0.000 A 
ENDBRANCH  25  26
ENDBRANCH   8  25
TORSDOF 5
