REMARK SMILES Nc1ncnc2c1ncn2[C@@H]1O[C@H](CO)[C@@H](O)[C@@H]1O
REMARK SMILES IDX 11 1 12 2 13 3 16 4 18 5 10 6 2 7 3 8 7 9 4 10 6 11 8 12
REMARK SMILES IDX 5 13 9 14 1 15 19 18 14 20 15 21 17 23
REMARK H PARENT 1 16 1 17 19 19 15 22 17 24
REMARK Flexibility Score: inf
ROOT
ATOM      1  C   UNL     1      -0.844   0.657  -0.506  1.00  0.00     0.253 C 
ATOM      2  O   UNL     1      -1.641   1.010   0.656  1.00  0.00    -0.347 OA
ATOM      3  C   UNL     1      -2.709   0.040   0.764  1.00  0.00     0.178 C 
ATOM      4  C   UNL     1      -2.215  -1.204   0.044  1.00  0.00     0.179 C 
ATOM      5  C   UNL     1      -1.500  -0.580  -1.141  1.00  0.00     0.195 C 
ENDROOT
BRANCH   1   6
ATOM      6  N   UNL     1       0.534   0.482  -0.096  1.00  0.00    -0.285 N 
ATOM      7  C   UNL     1       3.984   0.610  -0.673  1.00  0.00     0.155 A 
ATOM      8  N   UNL     1       4.055   1.058  -1.947  1.00  0.00    -0.217 NA
ATOM      9  C   UNL     1       2.717   0.430  -0.094  1.00  0.00     0.150 A 
ATOM     10  C   UNL     1       2.901   1.338  -2.592  1.00  0.00     0.226 A 
ATOM     11  C   UNL     1       1.623   0.750  -0.881  1.00  0.00     0.167 A 
ATOM     12  N   UNL     1       2.314  -0.028   1.145  1.00  0.00    -0.231 NA
ATOM     13  N   UNL     1       1.635   1.218  -2.140  1.00  0.00    -0.216 NA
ATOM     14  C   UNL     1       0.999   0.033   1.112  1.00  0.00     0.204 A 
BRANCH   7  15
ATOM     15  N   UNL     1       5.172   0.332  -0.008  1.00  0.00    -0.382 N 
ATOM     16  H   UNL     1       5.053  -0.302   0.774  1.00  0.00     0.158 HD
ATOM     17  H   UNL     1       5.933   0.153  -0.649  1.00  0.00     0.158 HD
ENDBRANCH   7  15
ENDBRANCH   1   6
BRANCH   5  18
ATOM     18  O   UNL     1      -0.621  -1.508  -1.761  1.00  0.00    -0.386 OA
ATOM     19  H   UNL     1      -1.121  -1.972  -2.457  1.00  0.00     0.211 HD
ENDBRANCH   5  18
BRANCH   3  20
ATOM     20  C   UNL     1      -3.031  -0.202   2.234  1.00  0.00     0.191 C 
BRANCH  20  21
ATOM     21  O   UNL     1      -3.460   1.017   2.840  1.00  0.00    -0.394 OA
ATOM     22  H   UNL     1      -2.801   1.694   2.592  1.00  0.00     0.210 HD
ENDBRANCH  20  21
ENDBRANCH   3  20
BRANCH   4  23
ATOM     23  O   UNL     1      -3.271  -2.060  -0.366  1.00  0.00    -0.387 OA
ATOM     24  H   UNL     1      -2.865  -2.890  -0.676  1.00  0.00     0.211 HD
ENDBRANCH   4  23
TORSDOF 6
