REMARK SMILES CC(C)(C)C(=O)OCOC(=O)[C@@H]1N2C(=O)[C@@H](NC(=O)[C@H](N)c3ccccc3)[C@H]2SC1(C)C
REMARK SMILES IDX 10 1 11 2 9 3 8 4 7 5 5 6 6 7 2 8 1 9 3 10 4 11 12 12 13 13
REMARK SMILES IDX 30 14 14 15 28 16 29 17 31 18 32 19 15 20 16 21 17 22 18 23
REMARK SMILES IDX 19 25 20 26 21 27 22 30 23 31 27 32 24 33 26 34 25 35
REMARK H PARENT 17 24 21 28 21 29
REMARK Flexibility Score: inf
ROOT
ATOM      1  C   UNL     1       2.169   0.927   0.844  1.00  0.00     0.333 C 
ATOM      2  O   UNL     1       2.349   2.008   0.297  1.00  0.00    -0.250 OA
ENDROOT
BRANCH   1   3
ATOM      3  O   UNL     1       3.122   0.226   1.519  1.00  0.00    -0.426 OA
BRANCH   3   4
ATOM      4  C   UNL     1       4.434   0.793   1.459  1.00  0.00     0.474 C 
BRANCH   4   5
ATOM      5  O   UNL     1       5.088   0.469   0.231  1.00  0.00    -0.427 OA
BRANCH   5   6
ATOM      6  C   UNL     1       5.699  -0.746   0.208  1.00  0.00     0.314 C 
ATOM      7  O   UNL     1       5.750  -1.514   1.160  1.00  0.00    -0.252 OA
BRANCH   6   8
ATOM      8  C   UNL     1       6.283  -1.036  -1.177  1.00  0.00     0.060 C 
ATOM      9  C   UNL     1       7.197   0.116  -1.617  1.00  0.00     0.023 C 
ATOM     10  C   UNL     1       7.107  -2.331  -1.124  1.00  0.00     0.023 C 
ATOM     11  C   UNL     1       5.129  -1.211  -2.172  1.00  0.00     0.023 C 
ENDBRANCH   6   8
ENDBRANCH   5   6
ENDBRANCH   4   5
ENDBRANCH   3   4
ENDBRANCH   1   3
BRANCH   1  12
ATOM     12  C   UNL     1       0.837   0.173   0.894  1.00  0.00     0.212 C 
ATOM     13  N   UNL     1       0.106   0.496  -0.325  1.00  0.00    -0.311 N 
ATOM     14  C   UNL     1      -0.058   0.556   2.096  1.00  0.00     0.044 C 
ATOM     15  C   UNL     1      -0.848  -0.336  -0.836  1.00  0.00     0.250 C 
ATOM     16  C   UNL     1      -0.792   1.664  -0.280  1.00  0.00     0.176 C 
ATOM     17  S   UNL     1      -1.220   1.872   1.502  1.00  0.00    -0.125 SA
ATOM     18  C   UNL     1      -0.913  -0.640   2.550  1.00  0.00     0.026 C 
ATOM     19  C   UNL     1       0.699   1.100   3.314  1.00  0.00     0.026 C 
ATOM     20  O   UNL     1      -0.912  -1.543  -0.865  1.00  0.00    -0.272 OA
ATOM     21  C   UNL     1      -1.785   0.853  -1.160  1.00  0.00     0.205 C 
BRANCH  21  22
ATOM     22  N   UNL     1      -3.182   0.735  -0.677  1.00  0.00    -0.340 N 
ATOM     23  C   UNL     1      -4.050   1.806  -0.741  1.00  0.00     0.242 C 
ATOM     24  H   UNL     1      -3.533  -0.155  -0.329  1.00  0.00     0.164 HD
ATOM     25  O   UNL     1      -3.711   2.891  -1.213  1.00  0.00    -0.273 OA
BRANCH  23  26
ATOM     26  C   UNL     1      -5.430   1.576  -0.070  1.00  0.00     0.172 C 
BRANCH  26  27
ATOM     27  N   UNL     1      -5.237   1.664   1.395  1.00  0.00    -0.316 NA
ATOM     28  H   UNL     1      -4.923   2.615   1.605  1.00  0.00     0.119 HD
ATOM     29  H   UNL     1      -4.450   1.071   1.659  1.00  0.00     0.119 HD
ENDBRANCH  26  27
BRANCH  26  30
ATOM     30  C   UNL     1      -6.097   0.286  -0.529  1.00  0.00    -0.022 A 
ATOM     31  C   UNL     1      -6.293   0.069  -1.907  1.00  0.00     0.006 A 
ATOM     32  C   UNL     1      -6.559  -0.691   0.367  1.00  0.00     0.006 A 
ATOM     33  C   UNL     1      -6.905  -1.097  -2.371  1.00  0.00     0.000 A 
ATOM     34  C   UNL     1      -7.175  -1.856  -0.099  1.00  0.00     0.000 A 
ATOM     35  C   UNL     1      -7.345  -2.060  -1.466  1.00  0.00     0.000 A 
ENDBRANCH  26  30
ENDBRANCH  23  26
ENDBRANCH  21  22
ENDBRANCH   1  12
TORSDOF 10
