REMARK SMILES CN(C)CC(c1ccc(O)cc1)C1(O)CCCCC1
REMARK SMILES IDX 5 1 4 2 2 3 1 4 3 5 6 6 7 7 12 8 8 9 11 10 9 11 10 12 13 14
REMARK SMILES IDX 15 15 19 16 16 17 18 18 17 19 14 20
REMARK H PARENT 10 13 14 21
REMARK Flexibility Score: inf
ROOT
ATOM      1  C   UNL     1      -0.632   0.020   0.434  1.00  0.00     0.065 C 
ENDROOT
BRANCH   1   2
ATOM      2  C   UNL     1      -0.989  -0.919  -0.761  1.00  0.00     0.095 C 
BRANCH   2   3
ATOM      3  N   UNL     1      -0.920  -2.371  -0.506  1.00  0.00    -0.309 NA
ATOM      4  C   UNL     1      -0.976  -3.110  -1.772  1.00  0.00     0.105 C 
ATOM      5  C   UNL     1      -2.008  -2.823   0.367  1.00  0.00     0.105 C 
ENDBRANCH   2   3
ENDBRANCH   1   2
BRANCH   1   6
ATOM      6  C   UNL     1      -1.190   1.432   0.172  1.00  0.00    -0.040 A 
ATOM      7  C   UNL     1      -1.905   2.087   1.190  1.00  0.00     0.008 A 
ATOM      8  C   UNL     1      -1.006   2.102  -1.050  1.00  0.00     0.008 A 
ATOM      9  C   UNL     1      -2.418   3.369   0.994  1.00  0.00     0.046 A 
ATOM     10  C   UNL     1      -1.520   3.387  -1.247  1.00  0.00     0.046 A 
ATOM     11  C   UNL     1      -2.223   4.009  -0.222  1.00  0.00     0.115 A 
BRANCH  11  12
ATOM     12  O   UNL     1      -2.740   5.261  -0.372  1.00  0.00    -0.508 OA
ATOM     13  H   UNL     1      -2.532   5.579  -1.266  1.00  0.00     0.293 HD
ENDBRANCH  11  12
ENDBRANCH   1   6
BRANCH   1  14
ATOM     14  C   UNL     1       0.883   0.049   0.878  1.00  0.00     0.073 C 
ATOM     15  C   UNL     1       1.839   0.640  -0.188  1.00  0.00     0.036 C 
ATOM     16  C   UNL     1       1.397  -1.323   1.390  1.00  0.00     0.036 C 
ATOM     17  C   UNL     1       3.301   0.327   0.128  1.00  0.00     0.003 C 
ATOM     18  C   UNL     1       2.336  -2.018   0.408  1.00  0.00     0.003 C 
ATOM     19  C   UNL     1       3.578  -1.176   0.126  1.00  0.00     0.000 C 
BRANCH  14  20
ATOM     20  O   UNL     1       0.975   0.905   2.047  1.00  0.00    -0.389 OA
ATOM     21  H   UNL     1       0.744   1.810   1.771  1.00  0.00     0.211 HD
ENDBRANCH  14  20
ENDBRANCH   1  14
TORSDOF 6
