REMARK SMILES CCOC(=O)[C@H](CCc1ccccc1)N[C@@H](C)C(=O)N1[C@H](C(=O)O)C[C@@H]2CCC[C@@H]21
REMARK SMILES IDX 16 1 17 2 15 3 6 5 4 6 5 7 3 8 2 9 1 10 7 11 8 12 9 13 10 14
REMARK SMILES IDX 14 15 11 16 13 17 12 18 18 19 19 20 20 21 21 22 30 23 25 24
REMARK SMILES IDX 26 25 29 26 27 27 28 28 22 29 23 30 24 31
REMARK H PARENT 15 4 24 32
REMARK Flexibility Score: inf
ROOT
ATOM      1  C   UNL     1      -0.692  -0.778   0.727  1.00  0.00     0.141 C 
ATOM      2  C   UNL     1      -1.049  -2.004   1.571  1.00  0.00     0.035 C 
ENDROOT
BRANCH   1   3
ATOM      3  N   UNL     1       0.703  -0.383   1.052  1.00  0.00    -0.293 NA
ATOM      4  H   UNL     1       0.637   0.366   1.752  1.00  0.00     0.124 HD
BRANCH   3   5
ATOM      5  C   UNL     1       1.435   0.127  -0.131  1.00  0.00     0.165 C 
BRANCH   5   6
ATOM      6  C   UNL     1       1.723  -1.008  -1.141  1.00  0.00     0.323 C 
ATOM      7  O   UNL     1       1.854  -2.195  -0.862  1.00  0.00    -0.250 OA
BRANCH   6   8
ATOM      8  O   UNL     1       1.778  -0.493  -2.410  1.00  0.00    -0.465 OA
BRANCH   8   9
ATOM      9  C   UNL     1       1.926  -1.495  -3.423  1.00  0.00     0.229 C 
ATOM     10  C   UNL     1       1.977  -0.812  -4.784  1.00  0.00     0.049 C 
ENDBRANCH   8   9
ENDBRANCH   6   8
ENDBRANCH   5   6
BRANCH   5  11
ATOM     11  C   UNL     1       2.755   0.800   0.280  1.00  0.00     0.036 C 
BRANCH  11  12
ATOM     12  C   UNL     1       3.662  -0.079   1.155  1.00  0.00     0.038 C 
BRANCH  12  13
ATOM     13  C   UNL     1       4.952   0.628   1.507  1.00  0.00    -0.048 A 
ATOM     14  C   UNL     1       5.002   1.509   2.597  1.00  0.00     0.004 A 
ATOM     15  C   UNL     1       6.113   0.420   0.749  1.00  0.00     0.004 A 
ATOM     16  C   UNL     1       6.195   2.147   2.937  1.00  0.00     0.000 A 
ATOM     17  C   UNL     1       7.307   1.061   1.090  1.00  0.00     0.000 A 
ATOM     18  C   UNL     1       7.349   1.922   2.186  1.00  0.00     0.000 A 
ENDBRANCH  12  13
ENDBRANCH  11  12
ENDBRANCH   5  11
ENDBRANCH   3   5
ENDBRANCH   1   3
BRANCH   1  19
ATOM     19  C   UNL     1      -1.641   0.395   1.076  1.00  0.00     0.240 C 
ATOM     20  O   UNL     1      -1.264   1.322   1.798  1.00  0.00    -0.273 OA
BRANCH  19  21
ATOM     21  N   UNL     1      -2.930   0.365   0.580  1.00  0.00    -0.324 N 
ATOM     22  C   UNL     1      -3.888   1.375   1.048  1.00  0.00     0.195 C 
ATOM     23  C   UNL     1      -3.324  -0.192  -0.702  1.00  0.00     0.089 C 
ATOM     24  C   UNL     1      -5.104   1.207   0.139  1.00  0.00     0.043 C 
ATOM     25  C   UNL     1      -4.518   0.658  -1.163  1.00  0.00     0.014 C 
ATOM     26  C   UNL     1      -3.883  -1.609  -0.650  1.00  0.00     0.025 C 
ATOM     27  C   UNL     1      -5.464  -0.281  -1.920  1.00  0.00     0.006 C 
ATOM     28  C   UNL     1      -4.805  -1.657  -1.863  1.00  0.00     0.002 C 
BRANCH  22  29
ATOM     29  C   UNL     1      -4.282   1.104   2.502  1.00  0.00     0.326 C 
ATOM     30  O   UNL     1      -4.301   0.023   3.074  1.00  0.00    -0.250 OA
BRANCH  29  31
ATOM     31  O   UNL     1      -4.683   2.218   3.156  1.00  0.00    -0.480 OA
ATOM     32  H   UNL     1      -4.858   1.882   4.064  1.00  0.00     0.296 HD
ENDBRANCH  29  31
ENDBRANCH  22  29
ENDBRANCH  19  21
ENDBRANCH   1  19
TORSDOF 12
