REMARK SMILES CN(C)CCN(Cc1cccs1)c1ccccn1
REMARK SMILES IDX 5 1 4 2 2 3 1 4 3 5 6 6 7 7 8 8 9 9 12 10 10 11 11 12 13 13
REMARK SMILES IDX 14 14 18 15 15 16 17 17 16 18
REMARK H PARENT
REMARK Flexibility Score: inf
ROOT
ATOM      1  C   UNL     1       0.448  -0.623   0.219  1.00  0.00     0.134 C 
ENDROOT
BRANCH   1   2
ATOM      2  C   UNL     1       1.206   0.168  -0.873  1.00  0.00     0.105 C 
BRANCH   2   3
ATOM      3  N   UNL     1       2.669  -0.055  -0.873  1.00  0.00    -0.308 NA
ATOM      4  C   UNL     1       3.252   0.514  -2.093  1.00  0.00     0.105 C 
ATOM      5  C   UNL     1       3.303   0.553   0.300  1.00  0.00     0.105 C 
ENDBRANCH   2   3
ENDBRANCH   1   2
BRANCH   1   6
ATOM      6  N   UNL     1      -1.009  -0.409   0.091  1.00  0.00    -0.350 N 
BRANCH   6   7
ATOM      7  C   UNL     1      -1.627   0.453   1.116  1.00  0.00     0.164 C 
BRANCH   7   8
ATOM      8  C   UNL     1      -1.078   1.860   1.189  1.00  0.00     0.024 A 
ATOM      9  C   UNL     1      -0.193   2.389   2.109  1.00  0.00     0.017 A 
ATOM     10  S   UNL     1      -1.562   3.037   0.038  1.00  0.00    -0.147 S 
ATOM     11  C   UNL     1       0.099   3.761   1.857  1.00  0.00     0.012 A 
ATOM     12  C   UNL     1      -0.579   4.237   0.757  1.00  0.00     0.065 A 
ENDBRANCH   7   8
ENDBRANCH   6   7
BRANCH   6  13
ATOM     13  C   UNL     1      -1.731  -1.601  -0.121  1.00  0.00     0.128 A 
ATOM     14  C   UNL     1      -1.442  -2.398  -1.233  1.00  0.00     0.047 A 
ATOM     15  N   UNL     1      -2.719  -1.950   0.734  1.00  0.00    -0.239 NA
ATOM     16  C   UNL     1      -2.158  -3.572  -1.458  1.00  0.00     0.005 A 
ATOM     17  C   UNL     1      -3.404  -3.092   0.497  1.00  0.00     0.113 A 
ATOM     18  C   UNL     1      -3.161  -3.931  -0.573  1.00  0.00     0.020 A 
ENDBRANCH   6  13
ENDBRANCH   1   6
TORSDOF 6
