REMARK SMILES CCOc1ccc2ccccc2c1C(=O)N[C@@H]1C(=O)N2[C@@H]1SC(C)(C)[C@@H]2C(=O)O
REMARK SMILES IDX 14 1 15 2 16 3 13 5 4 6 5 7 6 8 12 9 7 10 11 11 8 12 10 13
REMARK SMILES IDX 9 14 3 15 2 16 1 17 17 18 18 19 21 20 19 21 20 22 22 23
REMARK SMILES IDX 26 24 23 25 24 26 25 27 27 28 28 29 29 30
REMARK H PARENT 16 4 29 31
REMARK Flexibility Score: inf
ROOT
ATOM      1  C   UNL     1      -1.535   0.537  -1.177  1.00  0.00     0.256 C 
ATOM      2  O   UNL     1      -1.898   0.891  -2.293  1.00  0.00    -0.269 OA
ATOM      3  N   UNL     1      -0.316   0.882  -0.642  1.00  0.00    -0.337 N 
ATOM      4  H   UNL     1      -0.110   0.582   0.308  1.00  0.00     0.164 HD
ENDROOT
BRANCH   1   5
ATOM      5  C   UNL     1      -2.395  -0.328  -0.320  1.00  0.00     0.089 A 
ATOM      6  C   UNL     1      -2.685   0.080   1.000  1.00  0.00     0.132 A 
ATOM      7  C   UNL     1      -3.512  -0.720   1.787  1.00  0.00     0.048 A 
ATOM      8  C   UNL     1      -4.043  -1.907   1.275  1.00  0.00     0.012 A 
ATOM      9  C   UNL     1      -2.915  -1.545  -0.855  1.00  0.00    -0.002 A 
ATOM     10  C   UNL     1      -3.752  -2.332  -0.028  1.00  0.00    -0.017 A 
ATOM     11  C   UNL     1      -2.636  -2.042  -2.154  1.00  0.00     0.010 A 
ATOM     12  C   UNL     1      -4.284  -3.543  -0.504  1.00  0.00     0.009 A 
ATOM     13  C   UNL     1      -3.169  -3.250  -2.613  1.00  0.00     0.001 A 
ATOM     14  C   UNL     1      -3.995  -4.000  -1.788  1.00  0.00     0.001 A 
BRANCH   6  15
ATOM     15  O   UNL     1      -2.109   1.247   1.436  1.00  0.00    -0.493 OA
BRANCH  15  16
ATOM     16  C   UNL     1      -2.556   1.794   2.678  1.00  0.00     0.226 C 
ATOM     17  C   UNL     1      -1.869   3.135   2.870  1.00  0.00     0.049 C 
ENDBRANCH  15  16
ENDBRANCH   6  15
ENDBRANCH   1   5
BRANCH   3  18
ATOM     18  C   UNL     1       0.712   1.602  -1.432  1.00  0.00     0.205 C 
ATOM     19  C   UNL     1       1.723   0.702  -2.198  1.00  0.00     0.250 C 
ATOM     20  C   UNL     1       1.968   2.080  -0.658  1.00  0.00     0.176 C 
ATOM     21  O   UNL     1       1.695  -0.267  -2.921  1.00  0.00    -0.272 OA
ATOM     22  N   UNL     1       2.790   1.317  -1.603  1.00  0.00    -0.311 N 
ATOM     23  S   UNL     1       2.261   1.317   0.989  1.00  0.00    -0.125 SA
ATOM     24  C   UNL     1       3.902   0.543  -1.061  1.00  0.00     0.211 C 
ATOM     25  C   UNL     1       3.486   0.072   0.356  1.00  0.00     0.044 C 
ATOM     26  C   UNL     1       2.773  -1.292   0.300  1.00  0.00     0.026 C 
ATOM     27  C   UNL     1       4.625  -0.025   1.379  1.00  0.00     0.026 C 
BRANCH  24  28
ATOM     28  C   UNL     1       5.194   1.366  -1.089  1.00  0.00     0.327 C 
ATOM     29  O   UNL     1       6.316   0.928  -0.881  1.00  0.00    -0.250 OA
BRANCH  28  30
ATOM     30  O   UNL     1       5.035   2.683  -1.325  1.00  0.00    -0.480 OA
ATOM     31  H   UNL     1       5.945   3.045  -1.315  1.00  0.00     0.296 HD
ENDBRANCH  28  30
ENDBRANCH  24  28
ENDBRANCH   3  18
TORSDOF 6
