REMARK SMILES CNCCCN1c2ccccc2CCc2ccccc21
REMARK SMILES IDX 5 1 4 2 3 3 2 4 1 5 6 7 7 8 8 9 12 10 9 11 11 12 10 13 13 14
REMARK SMILES IDX 20 16 15 17 19 18 16 19 18 20 17 21 14 22
REMARK H PARENT 2 6
REMARK Flexibility Score: 90.00
ROOT
ATOM      1  C   UNL     1       0.930  -0.020   1.051  1.00  0.00     0.124 C 
ENDROOT
BRANCH   1   2
ATOM      2  C   UNL     1       2.143  -0.215   0.121  1.00  0.00     0.037 C 
BRANCH   2   3
ATOM      3  C   UNL     1       3.403  -0.491   0.946  1.00  0.00     0.082 C 
BRANCH   3   4
ATOM      4  N   UNL     1       4.616  -0.618   0.138  1.00  0.00    -0.320 NA
ATOM      5  C   UNL     1       4.686  -1.879  -0.585  1.00  0.00     0.101 C 
ATOM      6  H   UNL     1       4.677   0.156  -0.524  1.00  0.00     0.122 HD
ENDBRANCH   3   4
ENDBRANCH   2   3
ENDBRANCH   1   2
BRANCH   1   7
ATOM      7  N   UNL     1      -0.344   0.188   0.300  1.00  0.00    -0.341 N 
BRANCH   7   8
ATOM      8  C   UNL     1      -1.031  -0.996  -0.135  1.00  0.00     0.044 A 
ATOM      9  C   UNL     1      -0.405  -2.270  -0.070  1.00  0.00     0.026 A 
ATOM     10  C   UNL     1      -2.331  -1.006  -0.695  1.00  0.00    -0.024 A 
ATOM     11  C   UNL     1      -0.980  -3.451  -0.561  1.00  0.00     0.002 A 
ATOM     12  C   UNL     1      -2.894  -2.201  -1.214  1.00  0.00     0.006 A 
ATOM     13  C   UNL     1      -2.226  -3.414  -1.150  1.00  0.00     0.000 A 
BRANCH  10  14
ATOM     14  C   UNL     1      -3.232   0.200  -0.762  1.00  0.00     0.042 CG0
ATOM     15  G   UNL     1      -3.219   0.979   0.540  1.00  0.00     0.000 G0
ENDBRANCH  10  14
ENDBRANCH   7   8
BRANCH   7  16
ATOM     16  C   UNL     1      -0.760   1.562   0.317  1.00  0.00     0.044 A 
ATOM     17  C   UNL     1      -2.095   1.970   0.484  1.00  0.00    -0.024 A 
ATOM     18  C   UNL     1       0.189   2.604   0.179  1.00  0.00     0.026 A 
ATOM     19  C   UNL     1      -2.433   3.341   0.568  1.00  0.00     0.006 A 
ATOM     20  C   UNL     1      -0.150   3.961   0.250  1.00  0.00     0.002 A 
ATOM     21  C   UNL     1      -1.466   4.330   0.457  1.00  0.00     0.000 A 
BRANCH  17  22
ATOM     22  C   UNL     1      -3.219   0.979   0.540  1.00  0.00     0.042 CG0
ATOM     23  G   UNL     1      -3.232   0.200  -0.762  1.00  0.00     0.000 G0
ENDBRANCH  17  22
ENDBRANCH   7  16
ENDBRANCH   1   7
TORSDOF 4
