REMARK SMILES O=C(CCBr)N1CCN(C(=O)CCBr)CC1
REMARK SMILES IDX 1 1 2 2 6 3 7 4 8 5 9 6 10 7 11 8 15 9 16 10 3 11 4 12 5 13
REMARK SMILES IDX 12 14 13 15 14 16
REMARK H PARENT
REMARK Flexibility Score: inf
ROOT
ATOM      1  O   UNL     1      -3.316  -1.408  -0.425  1.00  0.00    -0.275 OA
ATOM      2  C   UNL     1      -2.689  -0.377  -0.183  1.00  0.00     0.223 C 
ATOM      3  N   UNL     1      -1.320  -0.270  -0.417  1.00  0.00    -0.339 N 
ATOM      4  C   UNL     1      -0.484   0.806   0.148  1.00  0.00     0.141 C 
ATOM      5  C   UNL     1       0.817   1.027  -0.645  1.00  0.00     0.141 C 
ATOM      6  N   UNL     1       1.508  -0.246  -0.860  1.00  0.00    -0.339 N 
ATOM      7  C   UNL     1       2.561  -0.710  -0.079  1.00  0.00     0.223 C 
ATOM      8  O   UNL     1       2.835  -1.908  -0.005  1.00  0.00    -0.275 OA
ATOM      9  C   UNL     1       0.684  -1.227  -1.569  1.00  0.00     0.141 C 
ATOM     10  C   UNL     1      -0.605  -1.507  -0.786  1.00  0.00     0.141 C 
ENDROOT
BRANCH   2  11
ATOM     11  C   UNL     1      -3.388   0.850   0.369  1.00  0.00     0.111 C 
BRANCH  11  12
ATOM     12  C   UNL     1      -4.875   0.601   0.536  1.00  0.00     0.090 C 
ATOM     13  Br  UNL     1      -5.725   2.205   1.248  1.00  0.00    -0.092 Br
ENDBRANCH  11  12
ENDBRANCH   2  11
BRANCH   7  14
ATOM     14  C   UNL     1       3.346   0.331   0.700  1.00  0.00     0.111 C 
BRANCH  14  15
ATOM     15  C   UNL     1       4.634  -0.220   1.284  1.00  0.00     0.090 C 
ATOM     16  Br  UNL     1       6.028  -0.292  -0.081  1.00  0.00    -0.092 Br
ENDBRANCH  14  15
ENDBRANCH   7  14
TORSDOF 4
