REMARK SMILES CC1=C(C(=O)O)N2C(=O)[C@@H](NC(=O)[C@H](N)C3=CCC=CC3)[C@H]2SC1
REMARK SMILES IDX 1 1 2 2 3 3 7 4 8 5 9 6 10 7 22 8 23 9 24 10 4 11 5 12 6 13
REMARK SMILES IDX 11 15 12 16 13 18 14 19 15 20 16 23 17 24 21 25 18 26 20 27
REMARK SMILES IDX 19 28
REMARK H PARENT 6 14 11 17 15 21 15 22
REMARK Flexibility Score: inf
ROOT
ATOM      1  C   UNL     1       5.986   0.626   1.031  1.00  0.00     0.043 C 
ATOM      2  C   UNL     1       4.519   0.882   0.797  1.00  0.00    -0.032 C 
ATOM      3  C   UNL     1       3.957   0.988  -0.430  1.00  0.00     0.130 C 
ATOM      4  N   UNL     1       2.648   1.339  -0.595  1.00  0.00    -0.289 N 
ATOM      5  C   UNL     1       1.729   0.885  -1.481  1.00  0.00     0.253 C 
ATOM      6  O   UNL     1       1.817   0.284  -2.526  1.00  0.00    -0.272 OA
ATOM      7  C   UNL     1       0.573   1.311  -0.531  1.00  0.00     0.205 C 
ATOM      8  C   UNL     1       1.718   1.642   0.478  1.00  0.00     0.181 C 
ATOM      9  S   UNL     1       1.989   0.474   1.850  1.00  0.00    -0.129 SA
ATOM     10  C   UNL     1       3.720   0.980   2.078  1.00  0.00     0.105 C 
ENDROOT
BRANCH   3  11
ATOM     11  C   UNL     1       4.736   0.749  -1.675  1.00  0.00     0.352 C 
ATOM     12  O   UNL     1       4.862   1.535  -2.597  1.00  0.00    -0.245 OA
BRANCH  11  13
ATOM     13  O   UNL     1       5.278  -0.482  -1.705  1.00  0.00    -0.477 OA
ATOM     14  H   UNL     1       5.673  -0.533  -2.600  1.00  0.00     0.297 HD
ENDBRANCH  11  13
ENDBRANCH   3  11
BRANCH   7  15
ATOM     15  N   UNL     1      -0.388   0.241  -0.160  1.00  0.00    -0.340 N 
ATOM     16  C   UNL     1      -1.417   0.484   0.727  1.00  0.00     0.241 C 
ATOM     17  H   UNL     1      -0.256  -0.704  -0.498  1.00  0.00     0.164 HD
ATOM     18  O   UNL     1      -1.630   1.614   1.165  1.00  0.00    -0.273 OA
BRANCH  16  19
ATOM     19  C   UNL     1      -2.295  -0.751   1.097  1.00  0.00     0.168 C 
BRANCH  19  20
ATOM     20  N   UNL     1      -1.537  -2.012   0.969  1.00  0.00    -0.316 NA
ATOM     21  H   UNL     1      -1.451  -2.270  -0.009  1.00  0.00     0.119 HD
ATOM     22  H   UNL     1      -0.607  -1.892   1.369  1.00  0.00     0.119 HD
ENDBRANCH  19  20
BRANCH  19  23
ATOM     23  C   UNL     1      -3.594  -0.858   0.325  1.00  0.00    -0.044 C 
ATOM     24  C   UNL     1      -3.861  -0.201  -0.824  1.00  0.00    -0.021 C 
ATOM     25  C   UNL     1      -4.627  -1.771   0.965  1.00  0.00     0.060 C 
ATOM     26  C   UNL     1      -5.162  -0.296  -1.574  1.00  0.00     0.054 C 
ATOM     27  C   UNL     1      -5.928  -1.858   0.216  1.00  0.00    -0.026 C 
ATOM     28  C   UNL     1      -6.168  -1.196  -0.925  1.00  0.00    -0.027 C 
ENDBRANCH  19  23
ENDBRANCH  16  19
ENDBRANCH   7  15
TORSDOF 6
