REMARK SMILES CC(=O)CCCCn1c(=O)c2c(ncn2C)n(C)c1=O
REMARK SMILES IDX 5 1 4 2 2 3 1 4 3 5 6 6 7 7 8 8 9 9 19 10 10 11 11 12 17 13
REMARK SMILES IDX 20 14 12 15 15 16 18 17 13 18 14 19 16 20
REMARK H PARENT
REMARK Flexibility Score: inf
ROOT
ATOM      1  C   UNL     1       2.803   0.556  -1.308  1.00  0.00     0.010 C 
ENDROOT
BRANCH   1   2
ATOM      2  C   UNL     1       3.548   0.618   0.025  1.00  0.00     0.075 C 
BRANCH   2   3
ATOM      3  C   UNL     1       5.044   0.816  -0.154  1.00  0.00     0.129 C 
ATOM      4  C   UNL     1       5.845   0.999   1.108  1.00  0.00     0.087 C 
ATOM      5  O   UNL     1       5.588   0.816  -1.257  1.00  0.00    -0.300 OA
ENDBRANCH   2   3
ENDBRANCH   1   2
BRANCH   1   6
ATOM      6  C   UNL     1       1.283   0.495  -1.147  1.00  0.00     0.023 C 
BRANCH   6   7
ATOM      7  C   UNL     1       0.790  -0.823  -0.540  1.00  0.00     0.131 C 
BRANCH   7   8
ATOM      8  N   UNL     1      -0.662  -0.835  -0.397  1.00  0.00    -0.258 N 
ATOM      9  C   UNL     1      -1.188  -0.293   0.783  1.00  0.00     0.282 C 
ATOM     10  C   UNL     1      -1.421  -1.307  -1.489  1.00  0.00     0.332 C 
ATOM     11  O   UNL     1      -0.505   0.177   1.689  1.00  0.00    -0.267 OA
ATOM     12  C   UNL     1      -2.607  -0.332   0.825  1.00  0.00     0.152 A 
ATOM     13  N   UNL     1      -2.809  -1.308  -1.347  1.00  0.00    -0.279 N 
ATOM     14  O   UNL     1      -0.874  -1.697  -2.525  1.00  0.00    -0.247 OA
ATOM     15  C   UNL     1      -3.369  -0.819  -0.192  1.00  0.00     0.167 A 
ATOM     16  N   UNL     1      -3.501   0.065   1.777  1.00  0.00    -0.328 N 
ATOM     17  C   UNL     1      -3.660  -1.789  -2.421  1.00  0.00     0.157 C 
ATOM     18  N   UNL     1      -4.700  -0.743   0.087  1.00  0.00    -0.218 NA
ATOM     19  C   UNL     1      -4.753  -0.204   1.289  1.00  0.00     0.202 A 
ATOM     20  C   UNL     1      -3.195   0.655   3.055  1.00  0.00     0.151 C 
ENDBRANCH   7   8
ENDBRANCH   6   7
ENDBRANCH   1   6
TORSDOF 5
