REMARK SMILES COc1cc2ncc3c(c2cc1-c1cn(C)nc1C)n(-c1c(F)cncc1OC)c(=O)n3C
REMARK SMILES IDX 3 1 4 2 5 3 10 4 11 5 12 6 9 7 8 8 7 9 6 10 32 11 33 12
REMARK SMILES IDX 30 13 31 14 20 15 2 16 1 17 13 18 14 19 18 20 15 21 17 22
REMARK SMILES IDX 19 23 16 24 21 25 22 26 27 27 23 28 24 29 26 30 25 31 28 32
REMARK SMILES IDX 29 33
REMARK H PARENT
REMARK Flexibility Score: inf
ROOT
ATOM      1  C   UNL     1      -2.376   1.284   0.932  1.00  0.00     0.129 A 
ATOM      2  C   UNL     1      -1.595   2.430   1.121  1.00  0.00     0.076 A 
ATOM      3  C   UNL     1      -0.293   2.530   0.649  1.00  0.00     0.076 A 
ATOM      4  C   UNL     1       0.285   1.424  -0.018  1.00  0.00     0.027 A 
ATOM      5  C   UNL     1      -0.512   0.276  -0.241  1.00  0.00     0.025 A 
ATOM      6  C   UNL     1      -1.831   0.202   0.227  1.00  0.00     0.028 A 
ATOM      7  C   UNL     1       1.610   1.609  -0.447  1.00  0.00     0.086 A 
ATOM      8  C   UNL     1       2.232   2.848  -0.309  1.00  0.00     0.088 A 
ATOM      9  C   UNL     1       1.590   3.866   0.340  1.00  0.00     0.140 A 
ATOM     10  N   UNL     1       0.345   3.707   0.838  1.00  0.00    -0.254 NA
ATOM     11  N   UNL     1       3.496   2.803  -0.902  1.00  0.00    -0.293 N 
ATOM     12  C   UNL     1       4.457   3.869  -0.891  1.00  0.00     0.155 C 
ATOM     13  C   UNL     1       3.729   1.498  -1.378  1.00  0.00     0.333 C 
ATOM     14  O   UNL     1       4.774   1.085  -1.858  1.00  0.00    -0.247 OA
ATOM     15  N   UNL     1       2.533   0.765  -1.114  1.00  0.00    -0.253 N 
ENDROOT
BRANCH   1  16
ATOM     16  O   UNL     1      -3.663   1.142   1.385  1.00  0.00    -0.496 OA
ATOM     17  C   UNL     1      -4.216   2.201   2.155  1.00  0.00     0.278 C 
ENDBRANCH   1  16
BRANCH   6  18
ATOM     18  C   UNL     1      -2.592  -1.001  -0.045  1.00  0.00     0.026 A 
ATOM     19  C   UNL     1      -3.654  -1.057  -0.921  1.00  0.00     0.117 A 
ATOM     20  C   UNL     1      -2.445  -2.329   0.432  1.00  0.00     0.067 A 
ATOM     21  N   UNL     1      -4.077  -2.351  -0.915  1.00  0.00    -0.275 N 
ATOM     22  N   UNL     1      -3.352  -3.153  -0.114  1.00  0.00    -0.178 NA
ATOM     23  C   UNL     1      -1.456  -2.857   1.401  1.00  0.00     0.069 C 
ATOM     24  C   UNL     1      -5.176  -2.908  -1.665  1.00  0.00     0.173 C 
ENDBRANCH   6  18
BRANCH  15  25
ATOM     25  C   UNL     1       2.531  -0.645  -1.119  1.00  0.00     0.132 A 
ATOM     26  C   UNL     1       2.789  -1.303  -2.324  1.00  0.00     0.169 A 
ATOM     27  C   UNL     1       2.381  -1.410   0.053  1.00  0.00     0.164 A 
ATOM     28  F   UNL     1       2.938  -0.620  -3.469  1.00  0.00    -0.203 F 
ATOM     29  C   UNL     1       2.837  -2.683  -2.343  1.00  0.00     0.152 A 
ATOM     30  C   UNL     1       2.443  -2.797  -0.079  1.00  0.00     0.159 A 
ATOM     31  N   UNL     1       2.659  -3.451  -1.246  1.00  0.00    -0.258 NA
BRANCH  27  32
ATOM     32  O   UNL     1       2.224  -0.740   1.236  1.00  0.00    -0.493 OA
ATOM     33  C   UNL     1       2.294  -1.502   2.435  1.00  0.00     0.278 C 
ENDBRANCH  27  32
ENDBRANCH  15  25
TORSDOF 4
