REMARK SMILES O=C(NC[C@H]1CN(c2ccc(N3CCOCC3=O)cc2)C(=O)O1)c1ccc(Cl)s1
REMARK SMILES IDX 5 1 6 2 7 3 21 4 22 5 23 6 4 7 3 8 1 9 2 10 24 12 25 13
REMARK SMILES IDX 29 14 26 15 27 16 28 17 8 18 9 19 20 20 10 21 19 22 11 23
REMARK SMILES IDX 12 24 13 25 17 26 14 27 16 28 18 29 15 30
REMARK H PARENT 3 11
REMARK Flexibility Score: inf
ROOT
ATOM      1  C   UNL     1       2.654  -1.568   0.770  1.00  0.00     0.217 C 
ATOM      2  C   UNL     1       1.471  -0.648   0.987  1.00  0.00     0.176 C 
ATOM      3  N   UNL     1       0.350  -1.468   0.626  1.00  0.00    -0.274 N 
ATOM      4  C   UNL     1       0.741  -2.799   0.634  1.00  0.00     0.414 C 
ATOM      5  O   UNL     1       0.066  -3.802   0.468  1.00  0.00    -0.224 OA
ATOM      6  O   UNL     1       2.090  -2.884   0.880  1.00  0.00    -0.442 OA
ENDROOT
BRANCH   1   7
ATOM      7  C   UNL     1       3.302  -1.423  -0.620  1.00  0.00     0.163 C 
BRANCH   7   8
ATOM      8  N   UNL     1       4.655  -0.889  -0.576  1.00  0.00    -0.348 N 
ATOM      9  O   UNL     1       3.996   1.078   0.334  1.00  0.00    -0.268 OA
ATOM     10  C   UNL     1       4.907   0.398  -0.135  1.00  0.00     0.261 C 
ATOM     11  H   UNL     1       5.366  -1.375  -1.104  1.00  0.00     0.163 HD
BRANCH  10  12
ATOM     12  C   UNL     1       6.285   0.849  -0.274  1.00  0.00     0.093 A 
ATOM     13  C   UNL     1       7.440   0.144  -0.580  1.00  0.00     0.027 A 
ATOM     14  S   UNL     1       6.639   2.516  -0.019  1.00  0.00    -0.118 S 
ATOM     15  C   UNL     1       8.600   0.977  -0.616  1.00  0.00     0.033 A 
ATOM     16  C   UNL     1       8.281   2.278  -0.330  1.00  0.00     0.094 A 
ATOM     17  Cl  UNL     1       9.367   3.606  -0.263  1.00  0.00    -0.072 Cl
ENDBRANCH  10  12
ENDBRANCH   7   8
ENDBRANCH   1   7
BRANCH   3  18
ATOM     18  C   UNL     1      -0.965  -0.960   0.467  1.00  0.00     0.047 A 
ATOM     19  C   UNL     1      -1.235   0.401   0.649  1.00  0.00     0.028 A 
ATOM     20  C   UNL     1      -2.041  -1.778   0.119  1.00  0.00     0.028 A 
ATOM     21  C   UNL     1      -2.532   0.920   0.492  1.00  0.00     0.028 A 
ATOM     22  C   UNL     1      -3.338  -1.258  -0.037  1.00  0.00     0.028 A 
ATOM     23  C   UNL     1      -3.614   0.102   0.153  1.00  0.00     0.044 A 
BRANCH  23  24
ATOM     24  N   UNL     1      -4.941   0.630  -0.024  1.00  0.00    -0.308 N 
ATOM     25  C   UNL     1      -5.936  -0.196  -0.718  1.00  0.00     0.154 C 
ATOM     26  C   UNL     1      -5.377   1.797   0.632  1.00  0.00     0.253 C 
ATOM     27  C   UNL     1      -7.054   0.629  -1.341  1.00  0.00     0.183 C 
ATOM     28  C   UNL     1      -6.811   2.262   0.292  1.00  0.00     0.260 C 
ATOM     29  O   UNL     1      -4.707   2.476   1.411  1.00  0.00    -0.272 OA
ATOM     30  O   UNL     1      -7.715   1.355  -0.313  1.00  0.00    -0.370 OA
ENDBRANCH  23  24
ENDBRANCH   3  18
TORSDOF 5
