REMARK SMILES COc1ccc2c3c1O[C@H]1C(OC(=O)c4ccccc4)=CC[C@@H]4[C@@H](C2)N(C)CC[C@@]341
REMARK SMILES IDX 12 1 11 2 3 3 4 4 8 5 5 6 7 7 9 8 6 9 30 10 10 11 25 12
REMARK SMILES IDX 23 13 29 14 24 15 22 16 28 17 21 18 26 19 27 20 2 21 1 22
REMARK SMILES IDX 13 23 14 24 15 25 16 26 20 27 17 28 19 29 18 30
REMARK H PARENT
REMARK Flexibility Score: inf
ROOT
ATOM      1  O   UNL     1       2.685  -0.495   0.481  1.00  0.00    -0.424 OA
ENDROOT
BRANCH   1   2
ATOM      2  C   UNL     1       1.409  -1.017   0.187  1.00  0.00     0.145 C 
ATOM      3  C   UNL     1      -1.415   2.721   0.842  1.00  0.00     0.161 A 
ATOM      4  C   UNL     1      -2.781   2.750   1.170  1.00  0.00     0.051 A 
ATOM      5  C   UNL     1      -0.922   1.553   0.285  1.00  0.00     0.166 A 
ATOM      6  C   UNL     1      -3.592   1.603   1.023  1.00  0.00     0.008 A 
ATOM      7  C   UNL     1      -1.759   0.492   0.011  1.00  0.00     0.012 A 
ATOM      8  O   UNL     1       0.406   1.246   0.099  1.00  0.00    -0.477 OA
ATOM      9  C   UNL     1      -3.060   0.432   0.486  1.00  0.00    -0.039 A 
ATOM     10  C   UNL     1      -1.004  -0.658  -0.537  1.00  0.00     0.050 C 
ATOM     11  C   UNL     1       0.428  -0.083  -0.504  1.00  0.00     0.250 C 
ATOM     12  C   UNL     1      -3.735  -0.923   0.591  1.00  0.00     0.055 C 
ATOM     13  C   UNL     1      -1.313  -1.785   0.458  1.00  0.00     0.025 C 
ATOM     14  C   UNL     1      -1.379  -1.033  -1.987  1.00  0.00     0.032 C 
ATOM     15  C   UNL     1      -2.805  -2.165   0.251  1.00  0.00     0.065 C 
ATOM     16  C   UNL     1      -0.263  -2.890   0.350  1.00  0.00     0.037 C 
ATOM     17  C   UNL     1      -2.757  -1.676  -2.137  1.00  0.00     0.085 C 
ATOM     18  C   UNL     1       1.109  -2.282   0.538  1.00  0.00     0.020 C 
ATOM     19  N   UNL     1      -2.973  -2.703  -1.116  1.00  0.00    -0.303 NA
ATOM     20  C   UNL     1      -4.255  -3.375  -1.308  1.00  0.00     0.105 C 
BRANCH   3  21
ATOM     21  O   UNL     1      -0.518   3.729   1.049  1.00  0.00    -0.493 OA
ATOM     22  C   UNL     1      -1.018   4.933   1.610  1.00  0.00     0.278 C 
ENDBRANCH   3  21
ENDBRANCH   1   2
BRANCH   1  23
ATOM     23  C   UNL     1       3.451  -0.206  -0.611  1.00  0.00     0.343 C 
ATOM     24  O   UNL     1       3.200  -0.467  -1.779  1.00  0.00    -0.246 OA
BRANCH  23  25
ATOM     25  C   UNL     1       4.711   0.460  -0.181  1.00  0.00     0.060 A 
ATOM     26  C   UNL     1       4.901   0.944   1.121  1.00  0.00     0.015 A 
ATOM     27  C   UNL     1       5.733   0.615  -1.128  1.00  0.00     0.015 A 
ATOM     28  C   UNL     1       6.104   1.565   1.470  1.00  0.00     0.001 A 
ATOM     29  C   UNL     1       6.933   1.236  -0.775  1.00  0.00     0.001 A 
ATOM     30  C   UNL     1       7.117   1.709   0.523  1.00  0.00     0.000 A 
ENDBRANCH  23  25
ENDBRANCH   1  23
TORSDOF 4
