REMARK SMILES Cn1cc(-c2ccc3nnc(Sc4ccc5ncccc5c4)n3n2)cn1
REMARK SMILES IDX 5 1 24 2 23 3 11 4 10 5 9 6 8 7 7 8 6 9 4 10 1 11 2 12 3 13
REMARK SMILES IDX 26 14 25 15 12 16 13 17 14 18 22 19 15 20 21 21 16 22 20 23
REMARK SMILES IDX 17 24 19 25 18 26
REMARK H PARENT
REMARK Flexibility Score: inf
ROOT
ATOM      1  C   UNL     1      -3.201  -1.159  -0.206  1.00  0.00     0.095 C 
ATOM      2  N   UNL     1      -2.136  -0.444  -0.010  1.00  0.00    -0.164 NA
ATOM      3  N   UNL     1      -0.987  -1.192   0.042  1.00  0.00    -0.187 N 
ATOM      4  C   UNL     1       0.308  -0.767   0.232  1.00  0.00     0.217 A 
ATOM      5  N   UNL     1       1.127  -1.796   0.211  1.00  0.00    -0.121 NA
ATOM      6  N   UNL     1       0.373  -2.933   0.009  1.00  0.00    -0.128 NA
ATOM      7  C   UNL     1      -0.885  -2.565  -0.090  1.00  0.00     0.178 A 
ATOM      8  C   UNL     1      -2.074  -3.294  -0.296  1.00  0.00     0.053 C 
ATOM      9  C   UNL     1      -3.243  -2.640  -0.361  1.00  0.00     0.035 C 
ENDROOT
BRANCH   1  10
ATOM     10  C   UNL     1      -4.479  -0.472  -0.284  1.00  0.00     0.040 A 
ATOM     11  C   UNL     1      -6.669   2.405  -0.197  1.00  0.00     0.173 C 
ATOM     12  N   UNL     1      -5.999   1.130  -0.275  1.00  0.00    -0.275 N 
ATOM     13  C   UNL     1      -4.666   0.892  -0.131  1.00  0.00     0.118 A 
ATOM     14  N   UNL     1      -6.712   0.017  -0.518  1.00  0.00    -0.181 NA
ATOM     15  C   UNL     1      -5.791  -0.950  -0.521  1.00  0.00     0.145 A 
ENDBRANCH   1  10
BRANCH   4  16
ATOM     16  S   UNL     1       0.702   0.906   0.457  1.00  0.00    -0.048 SA
BRANCH  16  17
ATOM     17  C   UNL     1       2.470   0.778   0.618  1.00  0.00     0.016 A 
ATOM     18  C   UNL     1       3.055   0.550   1.864  1.00  0.00     0.018 A 
ATOM     19  C   UNL     1       3.294   0.949  -0.498  1.00  0.00     0.026 A 
ATOM     20  C   UNL     1       4.448   0.484   1.985  1.00  0.00     0.030 A 
ATOM     21  C   UNL     1       4.694   0.883  -0.371  1.00  0.00     0.001 A 
ATOM     22  C   UNL     1       5.285   0.648   0.890  1.00  0.00     0.070 A 
ATOM     23  C   UNL     1       5.542   1.049  -1.474  1.00  0.00     0.012 A 
ATOM     24  N   UNL     1       6.618   0.584   1.059  1.00  0.00    -0.256 NA
ATOM     25  C   UNL     1       6.920   0.981  -1.302  1.00  0.00     0.021 A 
ATOM     26  C   UNL     1       7.403   0.749  -0.029  1.00  0.00     0.112 A 
ENDBRANCH  16  17
ENDBRANCH   4  16
TORSDOF 3
