REMARK SMILES CN(C)CCc1c[nH]c2ccc(Cn3cncn3)cc12
REMARK SMILES IDX 6 1 7 2 8 3 9 4 10 5 11 6 12 7 19 8 20 9 5 11 4 12 2 13 1 14
REMARK SMILES IDX 3 15 13 16 14 17 15 18 18 19 16 20 17 21
REMARK H PARENT 8 10
REMARK Flexibility Score: inf
ROOT
ATOM      1  C   UNL     1      -0.931  -1.495   0.309  1.00  0.00    -0.021 A 
ATOM      2  C   UNL     1      -1.219  -2.578   1.116  1.00  0.00     0.087 A 
ATOM      3  N   UNL     1      -0.195  -2.733   2.010  1.00  0.00    -0.361 N 
ATOM      4  C   UNL     1       0.764  -1.768   1.808  1.00  0.00     0.046 A 
ATOM      5  C   UNL     1       1.969  -1.540   2.481  1.00  0.00     0.027 A 
ATOM      6  C   UNL     1       2.760  -0.469   2.052  1.00  0.00     0.008 A 
ATOM      7  C   UNL     1       2.366   0.350   0.986  1.00  0.00    -0.026 A 
ATOM      8  C   UNL     1       1.145   0.098   0.332  1.00  0.00     0.016 A 
ATOM      9  C   UNL     1       0.331  -0.977   0.745  1.00  0.00     0.003 A 
ATOM     10  H   UNL     1      -0.143  -3.453   2.718  1.00  0.00     0.166 HD
ENDROOT
BRANCH   1  11
ATOM     11  C   UNL     1      -1.780  -0.967  -0.810  1.00  0.00     0.053 C 
BRANCH  11  12
ATOM     12  C   UNL     1      -2.677   0.197  -0.353  1.00  0.00     0.088 C 
BRANCH  12  13
ATOM     13  N   UNL     1      -3.441   0.825  -1.451  1.00  0.00    -0.309 NA
ATOM     14  C   UNL     1      -4.066   2.063  -0.978  1.00  0.00     0.104 C 
ATOM     15  C   UNL     1      -4.467  -0.071  -1.987  1.00  0.00     0.104 C 
ENDBRANCH  12  13
ENDBRANCH  11  12
ENDBRANCH   1  11
BRANCH   7  16
ATOM     16  C   UNL     1       3.240   1.496   0.537  1.00  0.00     0.181 C 
BRANCH  16  17
ATOM     17  N   UNL     1       3.805   1.273  -0.782  1.00  0.00    -0.249 N 
ATOM     18  C   UNL     1       4.597   0.244  -1.191  1.00  0.00     0.220 A 
ATOM     19  N   UNL     1       3.648   2.180  -1.768  1.00  0.00    -0.160 NA
ATOM     20  N   UNL     1       4.962   0.438  -2.437  1.00  0.00    -0.224 NA
ATOM     21  C   UNL     1       4.356   1.621  -2.752  1.00  0.00     0.246 A 
ENDBRANCH  16  17
ENDBRANCH   7  16
TORSDOF 5
