REMARK SMILES Cn1cc(-c2ccc(CNc3cc(-c4cnc5cc(OCCCN6CCCC6)ccn45)ncn3)cc2)cn1
REMARK SMILES IDX 14 1 15 2 16 3 17 4 18 5 19 6 29 7 30 8 31 9 13 10 11 11
REMARK SMILES IDX 12 12 34 13 33 14 32 15 10 16 9 18 8 19 5 20 6 21 36 22 7 23
REMARK SMILES IDX 35 24 4 25 1 26 2 27 3 28 38 29 37 30 20 31 21 32 22 33
REMARK SMILES IDX 23 34 24 35 25 36 28 37 26 38 27 39
REMARK H PARENT 10 17
REMARK Flexibility Score: inf
ROOT
ATOM      1  C   UNL     1      -0.879   1.962  -0.365  1.00  0.00     0.091 A 
ATOM      2  C   UNL     1      -1.650   2.564   0.616  1.00  0.00     0.142 A 
ATOM      3  N   UNL     1      -2.893   2.003   0.716  1.00  0.00    -0.236 NA
ATOM      4  C   UNL     1      -2.912   1.055  -0.195  1.00  0.00     0.140 A 
ATOM      5  C   UNL     1      -3.946   0.139  -0.547  1.00  0.00     0.094 C 
ATOM      6  C   UNL     1      -3.732  -0.795  -1.500  1.00  0.00     0.124 C 
ATOM      7  C   UNL     1      -2.444  -0.868  -2.178  1.00  0.00     0.065 C 
ATOM      8  C   UNL     1      -1.470   0.002  -1.862  1.00  0.00     0.097 C 
ATOM      9  N   UNL     1      -1.701   0.970  -0.882  1.00  0.00    -0.298 N 
ENDROOT
BRANCH   1  10
ATOM     10  C   UNL     1       0.482   2.263  -0.789  1.00  0.00     0.094 A 
ATOM     11  C   UNL     1       2.699   2.969  -0.397  1.00  0.00     0.130 A 
ATOM     12  C   UNL     1       1.450   2.664   0.111  1.00  0.00     0.077 A 
ATOM     13  N   UNL     1       2.944   2.920  -1.714  1.00  0.00    -0.220 NA
ATOM     14  C   UNL     1       1.937   2.522  -2.506  1.00  0.00     0.224 A 
ATOM     15  N   UNL     1       0.708   2.175  -2.109  1.00  0.00    -0.235 NA
BRANCH  11  16
ATOM     16  N   UNL     1       3.679   3.417   0.504  1.00  0.00    -0.366 N 
ATOM     17  H   UNL     1       3.714   2.794   1.305  1.00  0.00     0.162 HD
BRANCH  16  18
ATOM     18  C   UNL     1       5.015   3.651  -0.036  1.00  0.00     0.150 C 
BRANCH  18  19
ATOM     19  C   UNL     1       5.867   2.408   0.081  1.00  0.00    -0.029 A 
ATOM     20  C   UNL     1       7.424   0.057   0.313  1.00  0.00    -0.015 A 
ATOM     21  C   UNL     1       7.264   0.921   1.405  1.00  0.00     0.009 A 
ATOM     22  C   UNL     1       6.788   0.380  -0.893  1.00  0.00     0.009 A 
ATOM     23  C   UNL     1       6.493   2.083   1.292  1.00  0.00     0.006 A 
ATOM     24  C   UNL     1       6.017   1.541  -1.007  1.00  0.00     0.006 A 
BRANCH  20  25
ATOM     25  C   UNL     1       8.220  -1.156   0.418  1.00  0.00     0.020 A 
ATOM     26  C   UNL     1      10.831  -3.271   1.733  1.00  0.00     0.173 C 
ATOM     27  N   UNL     1       9.736  -2.615   1.061  1.00  0.00    -0.275 N 
ATOM     28  C   UNL     1       9.256  -1.362   1.308  1.00  0.00     0.117 A 
ATOM     29  N   UNL     1       9.094  -3.248   0.063  1.00  0.00    -0.181 NA
ATOM     30  C   UNL     1       8.172  -2.361  -0.324  1.00  0.00     0.143 A 
ENDBRANCH  20  25
ENDBRANCH  18  19
ENDBRANCH  16  18
ENDBRANCH  11  16
ENDBRANCH   1  10
BRANCH   6  31
ATOM     31  O   UNL     1      -4.608  -1.748  -1.952  1.00  0.00    -0.493 OA
BRANCH  31  32
ATOM     32  C   UNL     1      -5.936  -1.806  -1.423  1.00  0.00     0.231 C 
BRANCH  32  33
ATOM     33  C   UNL     1      -5.971  -2.622  -0.136  1.00  0.00     0.057 C 
BRANCH  33  34
ATOM     34  C   UNL     1      -7.378  -3.007   0.340  1.00  0.00     0.088 C 
BRANCH  34  35
ATOM     35  N   UNL     1      -8.311  -1.959   0.724  1.00  0.00    -0.303 NA
ATOM     36  C   UNL     1      -9.139  -1.393  -0.332  1.00  0.00     0.084 C 
ATOM     37  C   UNL     1      -7.806  -0.877   1.553  1.00  0.00     0.084 C 
ATOM     38  C   UNL     1      -9.593  -0.038   0.208  1.00  0.00     0.017 C 
ATOM     39  C   UNL     1      -9.009   0.048   1.610  1.00  0.00     0.017 C 
ENDBRANCH  34  35
ENDBRANCH  33  34
ENDBRANCH  32  33
ENDBRANCH  31  32
ENDBRANCH   6  31
TORSDOF 10
