REMARK SMILES NC(=O)c1cnc2[nH]ccc2c1N[C@@H]1[C@@H]2CC3C[C@H]1C[C@@](O)(C3)C2
REMARK SMILES IDX 13 1 12 3 4 4 5 5 6 6 11 7 7 8 10 9 8 10 9 11 2 13 1 14 3 17
REMARK SMILES IDX 14 18 15 19 19 20 16 21 24 22 18 23 20 24 17 25 21 26 23 27
REMARK SMILES IDX 22 28
REMARK H PARENT 13 2 8 12 1 15 1 16 22 29
REMARK Flexibility Score: inf
ROOT
ATOM      1  N   UNL     1       0.785   0.028  -1.145  1.00  0.00    -0.380 N 
ATOM      2  H   UNL     1       0.585   0.893  -1.661  1.00  0.00     0.160 HD
ENDROOT
BRANCH   1   3
ATOM      3  C   UNL     1       2.081   0.068  -0.595  1.00  0.00     0.060 A 
ATOM      4  C   UNL     1       2.763   1.277  -0.330  1.00  0.00     0.081 A 
ATOM      5  C   UNL     1       4.043   1.240   0.224  1.00  0.00     0.129 A 
ATOM      6  N   UNL     1       4.726   0.129   0.588  1.00  0.00    -0.238 NA
ATOM      7  C   UNL     1       2.778  -1.115  -0.244  1.00  0.00     0.043 A 
ATOM      8  C   UNL     1       4.043  -0.999   0.323  1.00  0.00     0.139 A 
ATOM      9  C   UNL     1       2.512  -2.515  -0.336  1.00  0.00     0.032 A 
ATOM     10  N   UNL     1       4.517  -2.257   0.577  1.00  0.00    -0.346 N 
ATOM     11  C   UNL     1       3.596  -3.191   0.182  1.00  0.00     0.085 A 
ATOM     12  H   UNL     1       5.422  -2.442   0.985  1.00  0.00     0.167 HD
BRANCH   4  13
ATOM     13  C   UNL     1       2.157   2.589  -0.662  1.00  0.00     0.252 C 
ATOM     14  N   UNL     1       2.458   3.650   0.151  1.00  0.00    -0.365 N 
ATOM     15  H   UNL     1       1.938   4.502  -0.027  1.00  0.00     0.159 HD
ATOM     16  H   UNL     1       2.844   3.534   1.078  1.00  0.00     0.159 HD
ATOM     17  O   UNL     1       1.385   2.727  -1.603  1.00  0.00    -0.269 OA
ENDBRANCH   4  13
ENDBRANCH   1   3
BRANCH   1  18
ATOM     18  C   UNL     1      -0.284  -0.399  -0.235  1.00  0.00     0.085 C 
ATOM     19  C   UNL     1      -1.324  -1.250  -1.002  1.00  0.00     0.015 C 
ATOM     20  C   UNL     1      -1.000   0.797   0.441  1.00  0.00     0.015 C 
ATOM     21  C   UNL     1      -2.098  -0.391  -2.022  1.00  0.00     0.009 C 
ATOM     22  C   UNL     1      -2.325  -1.816   0.024  1.00  0.00     0.041 C 
ATOM     23  C   UNL     1      -1.796   1.636  -0.580  1.00  0.00     0.009 C 
ATOM     24  C   UNL     1      -2.000   0.224   1.467  1.00  0.00     0.041 C 
ATOM     25  C   UNL     1      -2.827   0.759  -1.308  1.00  0.00    -0.008 C 
ATOM     26  C   UNL     1      -3.039  -0.664   0.754  1.00  0.00     0.066 C 
ATOM     27  C   UNL     1      -3.808   0.178  -0.278  1.00  0.00     0.039 C 
BRANCH  26  28
ATOM     28  O   UNL     1      -3.939  -1.210   1.707  1.00  0.00    -0.390 OA
ATOM     29  H   UNL     1      -4.418  -0.475   2.126  1.00  0.00     0.211 HD
ENDBRANCH  26  28
ENDBRANCH   1  18
TORSDOF 4
