REMARK SMILES Cn1cc2cc(C(F)(F)c3nnc4ccc(-c5cnn(C6CC6)c5)nn34)c(F)cc2n1
REMARK SMILES IDX 10 1 11 2 12 3 13 4 14 5 15 6 16 7 25 8 26 9 7 10 8 11 9 12
REMARK SMILES IDX 6 13 1 14 2 15 3 16 31 17 4 18 30 19 5 20 29 21 27 22 28 23
REMARK SMILES IDX 17 24 24 25 18 26 20 27 19 28 21 29 22 30 23 31
REMARK H PARENT
REMARK Flexibility Score: inf
ROOT
ATOM      1  C   UNL     1       0.776  -3.407  -1.851  1.00  0.00     0.229 A 
ATOM      2  N   UNL     1       1.077  -4.693  -1.938  1.00  0.00    -0.126 NA
ATOM      3  N   UNL     1       0.416  -5.360  -0.932  1.00  0.00    -0.128 NA
ATOM      4  C   UNL     1      -0.276  -4.473  -0.255  1.00  0.00     0.178 A 
ATOM      5  C   UNL     1      -1.124  -4.580   0.866  1.00  0.00     0.053 C 
ATOM      6  C   UNL     1      -1.696  -3.474   1.363  1.00  0.00     0.035 C 
ATOM      7  C   UNL     1      -1.387  -2.189   0.678  1.00  0.00     0.095 C 
ATOM      8  N   UNL     1      -0.623  -2.045  -0.361  1.00  0.00    -0.164 NA
ATOM      9  N   UNL     1      -0.084  -3.219  -0.799  1.00  0.00    -0.190 N 
ENDROOT
BRANCH   1  10
ATOM     10  C   UNL     1       1.220  -2.290  -2.734  1.00  0.00     0.336 C 
ATOM     11  F   UNL     1       2.053  -2.766  -3.713  1.00  0.00    -0.192 F 
ATOM     12  F   UNL     1       0.129  -1.837  -3.437  1.00  0.00    -0.192 F 
BRANCH  10  13
ATOM     13  C   UNL     1       1.899  -1.145  -1.985  1.00  0.00     0.066 A 
ATOM     14  C   UNL     1       2.828   4.191   0.264  1.00  0.00     0.173 C 
ATOM     15  N   UNL     1       2.703   2.844  -0.241  1.00  0.00    -0.275 N 
ATOM     16  C   UNL     1       1.696   2.358  -1.026  1.00  0.00     0.117 A 
ATOM     17  N   UNL     1       3.650   1.936   0.075  1.00  0.00    -0.173 NA
ATOM     18  C   UNL     1       2.026   1.048  -1.234  1.00  0.00     0.021 A 
ATOM     19  C   UNL     1       3.262   0.804  -0.535  1.00  0.00     0.095 A 
ATOM     20  C   UNL     1       1.290   0.139  -1.982  1.00  0.00     0.025 A 
ATOM     21  C   UNL     1       3.863  -0.460  -0.559  1.00  0.00     0.070 A 
ATOM     22  C   UNL     1       3.136  -1.408  -1.306  1.00  0.00     0.135 A 
ATOM     23  F   UNL     1       3.642  -2.649  -1.368  1.00  0.00    -0.206 F 
ENDBRANCH  10  13
ENDBRANCH   1  10
BRANCH   7  24
ATOM     24  C   UNL     1      -1.995  -0.998   1.242  1.00  0.00     0.040 A 
ATOM     25  C   UNL     1      -1.722   0.301   0.847  1.00  0.00     0.119 A 
ATOM     26  C   UNL     1      -2.958  -0.826   2.269  1.00  0.00     0.145 A 
ATOM     27  N   UNL     1      -2.500   1.112   1.613  1.00  0.00    -0.269 N 
ATOM     28  N   UNL     1      -3.258   0.455   2.498  1.00  0.00    -0.181 NA
BRANCH  27  29
ATOM     29  C   UNL     1      -2.492   2.586   1.520  1.00  0.00     0.107 C 
ATOM     30  C   UNL     1      -3.765   3.376   1.322  1.00  0.00     0.029 C 
ATOM     31  C   UNL     1      -2.746   3.319   0.222  1.00  0.00     0.029 C 
ENDBRANCH  27  29
ENDBRANCH   7  24
TORSDOF 4
