REMARK SMILES NC(=O)C1CCN(CCCN2c3ccccc3Sc3ccc(Cl)cc32)CC1
REMARK SMILES IDX 8 1 7 2 4 3 5 4 27 5 6 6 26 7 2 8 1 9 3 12 9 13 10 14 11 15
REMARK SMILES IDX 12 16 25 17 13 18 17 19 19 20 24 21 14 22 16 23 18 24 20 25
REMARK SMILES IDX 22 26 15 27 21 28 23 29
REMARK H PARENT 1 10 1 11
REMARK Flexibility Score: inf
ROOT
ATOM      1  C   UNL     1       0.609   0.789  -1.969  1.00  0.00     0.086 C 
ENDROOT
BRANCH   1   2
ATOM      2  N   UNL     1       1.828   0.040  -1.648  1.00  0.00    -0.303 NA
ATOM      3  C   UNL     1       3.887  -1.545  -0.333  1.00  0.00     0.081 C 
ATOM      4  C   UNL     1       4.037  -0.037  -0.561  1.00  0.00     0.029 C 
ATOM      5  C   UNL     1       2.952  -2.136  -1.393  1.00  0.00     0.029 C 
ATOM      6  C   UNL     1       2.676   0.656  -0.633  1.00  0.00     0.085 C 
ATOM      7  C   UNL     1       1.619  -1.392  -1.440  1.00  0.00     0.085 C 
BRANCH   3   8
ATOM      8  C   UNL     1       5.239  -2.244  -0.350  1.00  0.00     0.220 C 
ATOM      9  N   UNL     1       6.122  -1.826   0.603  1.00  0.00    -0.369 N 
ATOM     10  H   UNL     1       6.997  -2.332   0.661  1.00  0.00     0.159 HD
ATOM     11  H   UNL     1       5.843  -1.263   1.393  1.00  0.00     0.159 HD
ATOM     12  O   UNL     1       5.549  -3.141  -1.124  1.00  0.00    -0.275 OA
ENDBRANCH   3   8
ENDBRANCH   1   2
BRANCH   1  13
ATOM     13  C   UNL     1      -0.675   0.530  -1.167  1.00  0.00     0.037 C 
BRANCH  13  14
ATOM     14  C   UNL     1      -0.587   0.931   0.309  1.00  0.00     0.124 C 
BRANCH  14  15
ATOM     15  N   UNL     1      -1.914   0.868   0.984  1.00  0.00    -0.340 N 
ATOM     16  C   UNL     1      -2.391  -0.458   1.191  1.00  0.00     0.055 A 
ATOM     17  C   UNL     1      -2.759   1.980   0.710  1.00  0.00     0.057 A 
ATOM     18  C   UNL     1      -1.586  -1.404   1.858  1.00  0.00     0.027 A 
ATOM     19  C   UNL     1      -3.679  -0.861   0.793  1.00  0.00     0.036 A 
ATOM     20  C   UNL     1      -4.087   1.820   0.267  1.00  0.00     0.036 A 
ATOM     21  C   UNL     1      -2.296   3.292   0.938  1.00  0.00     0.048 A 
ATOM     22  C   UNL     1      -2.024  -2.712   2.084  1.00  0.00     0.002 A 
ATOM     23  C   UNL     1      -4.111  -2.179   1.018  1.00  0.00     0.017 A 
ATOM     24  S   UNL     1      -4.810   0.225  -0.052  1.00  0.00    -0.086 SA
ATOM     25  C   UNL     1      -4.894   2.944   0.018  1.00  0.00     0.019 A 
ATOM     26  C   UNL     1      -3.108   4.399   0.692  1.00  0.00     0.043 A 
ATOM     27  C   UNL     1      -3.286  -3.102   1.657  1.00  0.00     0.001 A 
ATOM     28  C   UNL     1      -4.405   4.232   0.226  1.00  0.00     0.022 A 
ATOM     29  Cl  UNL     1      -2.500   5.984   0.977  1.00  0.00    -0.084 Cl
ENDBRANCH  14  15
ENDBRANCH  13  14
ENDBRANCH   1  13
TORSDOF 5
