REMARK SMILES CN(N=O)C(=O)N[C@H]1C(O)O[C@H](CO)[C@@H](O)[C@@H]1O
REMARK SMILES IDX 8 1 9 2 11 3 12 4 15 5 17 6 7 7 5 8 6 9 2 11 1 12 3 13 4 14
REMARK SMILES IDX 10 15 18 17 16 19 13 21 14 22
REMARK H PARENT 7 10 10 16 18 18 16 20 14 23
REMARK Flexibility Score: inf
ROOT
ATOM      1  C   UNL     1      -0.146  -0.146  -0.247  1.00  0.00     0.171 C 
ATOM      2  C   UNL     1       0.611   1.197  -0.093  1.00  0.00     0.272 C 
ATOM      3  O   UNL     1       1.727   1.266  -0.972  1.00  0.00    -0.342 OA
ATOM      4  C   UNL     1       2.696   0.233  -0.707  1.00  0.00     0.178 C 
ATOM      5  C   UNL     1       2.077  -1.156  -0.892  1.00  0.00     0.176 C 
ATOM      6  C   UNL     1       0.836  -1.299  -0.005  1.00  0.00     0.173 C 
ENDROOT
BRANCH   1   7
ATOM      7  N   UNL     1      -1.289  -0.261   0.676  1.00  0.00    -0.326 N 
ATOM      8  C   UNL     1      -2.576   0.013   0.249  1.00  0.00     0.340 C 
ATOM      9  O   UNL     1      -2.845   0.131  -0.945  1.00  0.00    -0.247 OA
ATOM     10  H   UNL     1      -1.101  -0.053   1.648  1.00  0.00     0.166 HD
BRANCH   8  11
ATOM     11  N   UNL     1      -3.538   0.094   1.252  1.00  0.00    -0.182 N 
ATOM     12  C   UNL     1      -4.925   0.368   0.921  1.00  0.00     0.183 C 
BRANCH  11  13
ATOM     13  N   UNL     1      -3.178  -0.182   2.678  1.00  0.00     0.061 NA
ATOM     14  O   UNL     1      -4.140  -0.103   3.448  1.00  0.00    -0.125 OA
ENDBRANCH  11  13
ENDBRANCH   8  11
ENDBRANCH   1   7
BRANCH   2  15
ATOM     15  O   UNL     1      -0.248   2.277  -0.408  1.00  0.00    -0.366 OA
ATOM     16  H   UNL     1       0.304   3.072  -0.339  1.00  0.00     0.213 HD
ENDBRANCH   2  15
BRANCH   6  17
ATOM     17  O   UNL     1       0.225  -2.569  -0.286  1.00  0.00    -0.388 OA
ATOM     18  H   UNL     1      -0.702  -2.505   0.017  1.00  0.00     0.211 HD
ENDBRANCH   6  17
BRANCH   5  19
ATOM     19  O   UNL     1       3.009  -2.183  -0.550  1.00  0.00    -0.388 OA
ATOM     20  H   UNL     1       2.491  -3.014  -0.556  1.00  0.00     0.211 HD
ENDBRANCH   5  19
BRANCH   4  21
ATOM     21  C   UNL     1       3.876   0.449  -1.662  1.00  0.00     0.191 C 
BRANCH  21  22
ATOM     22  O   UNL     1       4.399   1.767  -1.480  1.00  0.00    -0.394 OA
ATOM     23  H   UNL     1       3.635   2.366  -1.583  1.00  0.00     0.210 HD
ENDBRANCH  21  22
ENDBRANCH   4  21
TORSDOF 8
