REMARK SMILES Cc1cn2nc(-c3cc(=O)n4cc(N5CCNC6(CC6)C5)ccc4n3)cc(C)c2n1
REMARK SMILES IDX 7 1 8 2 9 3 10 4 11 5 12 6 13 7 22 8 23 9 24 10 25 11 6 12
REMARK SMILES IDX 1 13 2 14 3 15 30 16 4 17 29 18 5 19 27 20 26 21 28 22 14 23
REMARK SMILES IDX 15 24 21 25 16 26 18 27 17 28 19 29 20 30
REMARK H PARENT 17 31
REMARK Flexibility Score: inf
ROOT
ATOM      1  C   UNL     1       2.069   0.338  -0.066  1.00  0.00     0.098 C 
ATOM      2  C   UNL     1       1.565   1.573  -0.146  1.00  0.00     0.103 C 
ATOM      3  C   UNL     1       0.108   1.737  -0.234  1.00  0.00     0.258 C 
ATOM      4  O   UNL     1      -0.355   2.875  -0.305  1.00  0.00    -0.269 OA
ATOM      5  N   UNL     1      -0.632   0.565  -0.228  1.00  0.00    -0.266 N 
ATOM      6  C   UNL     1      -2.018   0.637  -0.316  1.00  0.00     0.122 C 
ATOM      7  C   UNL     1      -2.825  -0.444  -0.327  1.00  0.00     0.054 C 
ATOM      8  C   UNL     1      -2.171  -1.739  -0.217  1.00  0.00     0.031 C 
ATOM      9  C   UNL     1      -0.842  -1.863  -0.130  1.00  0.00     0.050 C 
ATOM     10  C   UNL     1       0.017  -0.654  -0.139  1.00  0.00     0.140 C 
ATOM     11  N   UNL     1       1.304  -0.801  -0.060  1.00  0.00    -0.228 NA
ENDROOT
BRANCH   1  12
ATOM     12  C   UNL     1       3.580   0.225   0.023  1.00  0.00     0.110 C 
ATOM     13  C   UNL     1       9.229   1.727   0.253  1.00  0.00     0.068 C 
ATOM     14  C   UNL     1       7.839   1.226   0.201  1.00  0.00     0.058 A 
ATOM     15  C   UNL     1       6.663   1.936   0.100  1.00  0.00     0.138 A 
ATOM     16  N   UNL     1       7.580  -0.125   0.260  1.00  0.00    -0.232 NA
ATOM     17  N   UNL     1       5.664   1.004   0.095  1.00  0.00    -0.220 N 
ATOM     18  C   UNL     1       6.268  -0.235   0.194  1.00  0.00     0.156 A 
ATOM     19  N   UNL     1       4.338   1.285   0.008  1.00  0.00    -0.165 NA
ATOM     20  C   UNL     1       5.430  -1.386   0.209  1.00  0.00    -0.004 C 
ATOM     21  C   UNL     1       4.103  -1.177   0.126  1.00  0.00     0.039 C 
ATOM     22  C   UNL     1       5.975  -2.785   0.314  1.00  0.00     0.048 C 
ENDBRANCH   1  12
BRANCH   7  23
ATOM     23  N   UNL     1      -4.220  -0.386  -0.421  1.00  0.00    -0.367 N 
ATOM     24  C   UNL     1      -5.050  -1.518  -0.903  1.00  0.00     0.132 C 
ATOM     25  C   UNL     1      -4.983   0.838  -0.080  1.00  0.00     0.139 C 
ATOM     26  C   UNL     1      -6.363  -1.040  -1.554  1.00  0.00     0.103 C 
ATOM     27  C   UNL     1      -6.425   0.505   0.332  1.00  0.00     0.036 C 
ATOM     28  N   UNL     1      -7.231  -0.311  -0.617  1.00  0.00    -0.308 NA
ATOM     29  C   UNL     1      -6.685   0.247   1.802  1.00  0.00     0.026 C 
ATOM     30  C   UNL     1      -7.173   1.517   1.173  1.00  0.00     0.026 C 
ATOM     31  H   UNL     1      -7.868   0.279  -1.151  1.00  0.00     0.123 HD
ENDBRANCH   7  23
TORSDOF 2
