REMARK SMILES CN(CCCCCCN(C)C(=O)Oc1ccc[n+](C)c1)C(=O)Oc1ccc[n+](C)c1
REMARK SMILES IDX 5 1 4 2 3 3 2 4 1 5 21 6 22 7 23 8 24 9 25 10 30 11 26 12
REMARK SMILES IDX 28 13 27 14 29 15 6 16 7 17 8 18 9 19 10 20 11 21 12 22
REMARK SMILES IDX 13 23 14 24 15 25 20 26 16 27 18 28 17 29 19 30
REMARK H PARENT
REMARK Flexibility Score: inf
ROOT
ATOM      1  C   UNL     1      -0.389  -1.347  -0.319  1.00  0.00     0.002 C 
ENDROOT
BRANCH   1   2
ATOM      2  C   UNL     1      -1.406  -0.392   0.315  1.00  0.00     0.022 C 
BRANCH   2   3
ATOM      3  C   UNL     1      -2.018   0.593  -0.685  1.00  0.00     0.123 C 
BRANCH   3   4
ATOM      4  N   UNL     1      -3.139   1.338  -0.112  1.00  0.00    -0.311 N 
ATOM      5  C   UNL     1      -2.822   2.459   0.760  1.00  0.00     0.150 C 
BRANCH   4   6
ATOM      6  C   UNL     1      -4.411   0.788  -0.188  1.00  0.00     0.415 C 
ATOM      7  O   UNL     1      -4.683  -0.237  -0.806  1.00  0.00    -0.224 OA
BRANCH   6   8
ATOM      8  O   UNL     1      -5.370   1.527   0.511  1.00  0.00    -0.404 OA
BRANCH   8   9
ATOM      9  C   UNL     1      -6.701   1.073   0.509  1.00  0.00     0.196 A 
ATOM     10  C   UNL     1      -7.397   1.171   1.707  1.00  0.00     0.060 A 
ATOM     11  C   UNL     1      -7.345   0.599  -0.632  1.00  0.00     0.355 A 
ATOM     12  C   UNL     1      -8.722   0.756   1.750  1.00  0.00     0.075 A 
ATOM     13  N   UNL     1      -8.633   0.186  -0.563  1.00  0.00    -0.205 N 
ATOM     14  C   UNL     1      -9.325   0.259   0.598  1.00  0.00     0.308 A 
ATOM     15  C   UNL     1      -9.296  -0.334  -1.772  1.00  0.00     0.439 C 
ENDBRANCH   8   9
ENDBRANCH   6   8
ENDBRANCH   4   6
ENDBRANCH   3   4
ENDBRANCH   2   3
ENDBRANCH   1   2
BRANCH   1  16
ATOM     16  C   UNL     1       0.851  -0.688  -0.933  1.00  0.00     0.002 C 
BRANCH  16  17
ATOM     17  C   UNL     1       1.737   0.100   0.039  1.00  0.00     0.022 C 
BRANCH  17  18
ATOM     18  C   UNL     1       2.346  -0.711   1.190  1.00  0.00     0.123 C 
BRANCH  18  19
ATOM     19  N   UNL     1       3.308  -1.726   0.760  1.00  0.00    -0.311 N 
ATOM     20  C   UNL     1       2.867  -3.113   0.744  1.00  0.00     0.150 C 
BRANCH  19  21
ATOM     21  C   UNL     1       4.612  -1.431   0.396  1.00  0.00     0.415 C 
ATOM     22  O   UNL     1       5.436  -2.264   0.028  1.00  0.00    -0.224 OA
BRANCH  21  23
ATOM     23  O   UNL     1       4.916  -0.070   0.505  1.00  0.00    -0.404 OA
BRANCH  23  24
ATOM     24  C   UNL     1       6.215   0.340   0.158  1.00  0.00     0.196 A 
ATOM     25  C   UNL     1       6.328   1.505  -0.589  1.00  0.00     0.060 A 
ATOM     26  C   UNL     1       7.363  -0.339   0.564  1.00  0.00     0.355 A 
ATOM     27  C   UNL     1       7.594   1.949  -0.953  1.00  0.00     0.075 A 
ATOM     28  N   UNL     1       8.586   0.110   0.195  1.00  0.00    -0.205 N 
ATOM     29  C   UNL     1       8.717   1.228  -0.557  1.00  0.00     0.308 A 
ATOM     30  C   UNL     1       9.782  -0.655   0.589  1.00  0.00     0.439 C 
ENDBRANCH  23  24
ENDBRANCH  21  23
ENDBRANCH  19  21
ENDBRANCH  18  19
ENDBRANCH  17  18
ENDBRANCH  16  17
ENDBRANCH   1  16
TORSDOF 13
