REMARK SMILES Cc1nc([N+](=O)[O-])cn1-c1ccc([N+](=O)[O-])cc1
REMARK SMILES IDX 1 1 2 2 3 3 4 4 8 5 9 6 10 7 11 8 18 9 12 10 17 11 13 12
REMARK SMILES IDX 14 13 15 14 16 15 5 16 6 17 7 18
REMARK H PARENT
REMARK Flexibility Score: inf
ROOT
ATOM      1  C   UNL     1       1.542   2.359  -0.434  1.00  0.00     0.120 C 
ATOM      2  C   UNL     1       1.937   0.959  -0.120  1.00  0.00     0.225 A 
ATOM      3  N   UNL     1       3.201   0.580  -0.045  1.00  0.00    -0.022 NA
ATOM      4  C   UNL     1       3.175  -0.707   0.424  1.00  0.00     0.382 A 
ATOM      5  C   UNL     1       1.882  -1.126   0.631  1.00  0.00     0.202 A 
ATOM      6  N   UNL     1       1.070  -0.081   0.231  1.00  0.00    -0.276 N 
ENDROOT
BRANCH   6   7
ATOM      7  C   UNL     1      -0.359  -0.126   0.208  1.00  0.00     0.050 A 
ATOM      8  C   UNL     1      -1.040  -1.032   1.041  1.00  0.00     0.034 A 
ATOM      9  C   UNL     1      -1.102   0.692  -0.654  1.00  0.00     0.034 A 
ATOM     10  C   UNL     1      -2.438  -1.100   1.031  1.00  0.00     0.088 A 
ATOM     11  C   UNL     1      -2.501   0.627  -0.670  1.00  0.00     0.088 A 
ATOM     12  C   UNL     1      -3.166  -0.267   0.176  1.00  0.00     0.269 A 
BRANCH  12  13
ATOM     13  N   UNL     1      -4.633  -0.335   0.161  1.00  0.00     0.062 N 
ATOM     14  O   UNL     1      -5.236   0.426  -0.608  1.00  0.00    -0.258 OA
ATOM     15  O   UNL     1      -5.179  -1.149   0.918  1.00  0.00    -0.258 OA
ENDBRANCH  12  13
ENDBRANCH   6   7
BRANCH   4  16
ATOM     16  N   UNL     1       4.389  -1.459   0.646  1.00  0.00    -0.022 N 
ATOM     17  O   UNL     1       4.252  -2.614   1.079  1.00  0.00    -0.358 OA
ATOM     18  O   UNL     1       5.468  -0.907   0.394  1.00  0.00    -0.358 OA
ENDBRANCH   4  16
TORSDOF 3
