REMARK SMILES C#C[C@]1(O)CC[C@H]2[C@@H]3CCC4=Cc5oncc5C[C@]4(C)[C@H]3CC[C@@]21C
REMARK SMILES IDX 3 1 5 2 6 3 7 4 8 5 9 6 10 7 11 8 12 9 13 10 14 11 15 12
REMARK SMILES IDX 16 13 17 14 18 15 19 16 20 17 21 18 22 19 23 20 24 21 25 22
REMARK SMILES IDX 2 23 1 24 4 25
REMARK H PARENT 4 26
REMARK Flexibility Score: inf
ROOT
ATOM      1  C   UNL     1      -3.859  -0.189   0.174  1.00  0.00     0.130 C 
ATOM      2  C   UNL     1      -3.960  -1.437  -0.743  1.00  0.00     0.050 C 
ATOM      3  C   UNL     1      -2.517  -1.835  -1.113  1.00  0.00     0.008 C 
ATOM      4  C   UNL     1      -1.631  -0.917  -0.272  1.00  0.00     0.002 C 
ATOM      5  C   UNL     1      -0.182  -0.683  -0.720  1.00  0.00    -0.003 C 
ATOM      6  C   UNL     1       0.587  -2.008  -0.820  1.00  0.00     0.008 C 
ATOM      7  C   UNL     1       2.029  -1.779  -1.251  1.00  0.00     0.032 C 
ATOM      8  C   UNL     1       2.747  -0.816  -0.337  1.00  0.00    -0.060 C 
ATOM      9  C   UNL     1       3.978  -1.128   0.125  1.00  0.00     0.050 C 
ATOM     10  C   UNL     1       4.661  -0.170   0.904  1.00  0.00     0.162 A 
ATOM     11  O   UNL     1       5.968  -0.208   1.303  1.00  0.00    -0.357 OA
ATOM     12  N   UNL     1       6.270   0.934   2.033  1.00  0.00    -0.088 NA
ATOM     13  C   UNL     1       5.138   1.640   2.074  1.00  0.00     0.162 A 
ATOM     14  C   UNL     1       4.102   0.994   1.385  1.00  0.00     0.020 A 
ATOM     15  C   UNL     1       2.675   1.327   1.176  1.00  0.00     0.052 C 
ATOM     16  C   UNL     1       2.033   0.538  -0.039  1.00  0.00    -0.004 C 
ATOM     17  C   UNL     1       2.196   1.416  -1.305  1.00  0.00     0.017 C 
ATOM     18  C   UNL     1       0.517   0.269   0.300  1.00  0.00     0.003 C 
ATOM     19  C   UNL     1      -0.308   1.565   0.537  1.00  0.00     0.005 C 
ATOM     20  C   UNL     1      -1.786   1.294   0.874  1.00  0.00     0.011 C 
ATOM     21  C   UNL     1      -2.453   0.387  -0.175  1.00  0.00     0.011 C 
ATOM     22  C   UNL     1      -2.538   1.170  -1.519  1.00  0.00     0.016 C 
ENDROOT
BRANCH   1  23
ATOM     23  C   UNL     1      -4.015  -0.585   1.591  1.00  0.00    -0.071 C 
ATOM     24  C   UNL     1      -4.160  -0.907   2.740  1.00  0.00     0.007 C 
ENDBRANCH   1  23
BRANCH   1  25
ATOM     25  O   UNL     1      -4.894   0.733  -0.138  1.00  0.00    -0.377 OA
ATOM     26  H   UNL     1      -5.730   0.324   0.142  1.00  0.00     0.212 HD
ENDBRANCH   1  25
TORSDOF 2
