REMARK SMILES CCCC1C(=O)N2C(N(C)C)=Nc3ccc(C)cc3N2C1=O
REMARK SMILES IDX 3 1 2 2 1 3 4 4 5 5 21 6 6 7 7 8 20 9 22 10 8 11 19 12 9 13
REMARK SMILES IDX 12 14 13 15 18 16 10 17 11 18 14 19 16 20 15 21 17 22
REMARK H PARENT
REMARK Flexibility Score: inf
ROOT
ATOM      1  C   UNL     1       3.421   0.071   0.698  1.00  0.00     0.023 C 
ENDROOT
BRANCH   1   2
ATOM      2  C   UNL     1       3.341   0.172  -0.830  1.00  0.00    -0.002 C 
ATOM      3  C   UNL     1       4.722   0.333  -1.446  1.00  0.00     0.004 C 
ENDBRANCH   1   2
BRANCH   1   4
ATOM      4  C   UNL     1       2.066  -0.094   1.386  1.00  0.00     0.172 C 
ATOM      5  C   UNL     1       1.325  -1.333   0.953  1.00  0.00     0.261 C 
ATOM      6  C   UNL     1       1.121   1.049   1.123  1.00  0.00     0.259 C 
ATOM      7  O   UNL     1       1.806  -2.457   0.980  1.00  0.00    -0.272 OA
ATOM      8  N   UNL     1       0.037  -0.915   0.579  1.00  0.00    -0.179 N 
ATOM      9  N   UNL     1      -0.059   0.485   0.661  1.00  0.00    -0.208 N 
ATOM     10  O   UNL     1       1.402   2.223   1.307  1.00  0.00    -0.272 OA
ATOM     11  C   UNL     1      -1.036  -1.653   0.048  1.00  0.00     0.228 C 
ATOM     12  C   UNL     1      -1.227   1.137   0.234  1.00  0.00     0.093 A 
ATOM     13  N   UNL     1      -0.931  -3.034  -0.051  1.00  0.00    -0.347 N 
ATOM     14  N   UNL     1      -2.126  -1.068  -0.370  1.00  0.00    -0.211 NA
ATOM     15  C   UNL     1      -2.249   0.327  -0.276  1.00  0.00     0.093 A 
ATOM     16  C   UNL     1      -1.405   2.525   0.295  1.00  0.00     0.034 A 
ATOM     17  C   UNL     1      -1.696  -3.704  -1.103  1.00  0.00     0.146 C 
ATOM     18  C   UNL     1      -0.872  -3.816   1.185  1.00  0.00     0.146 C 
ATOM     19  C   UNL     1      -3.439   0.913  -0.713  1.00  0.00     0.031 A 
ATOM     20  C   UNL     1      -2.595   3.114  -0.159  1.00  0.00    -0.049 A 
ATOM     21  C   UNL     1      -3.616   2.296  -0.651  1.00  0.00     0.006 A 
ATOM     22  C   UNL     1      -2.790   4.598  -0.059  1.00  0.00     0.044 C 
ENDBRANCH   1   4
TORSDOF 2
