REMARK SMILES Cn1ncnc1[C@H]1c2n[nH]c(=O)c3cc(F)cc(c23)N[C@@H]1c1ccc(F)cc1
REMARK SMILES IDX 7 1 21 2 20 3 18 4 19 5 8 6 9 7 10 8 11 9 12 10 13 11 14 12
REMARK SMILES IDX 15 13 16 14 17 15 6 18 1 19 2 20 3 21 4 22 5 23 22 24 23 25
REMARK SMILES IDX 28 26 24 27 27 28 25 29 26 30
REMARK H PARENT 20 16 10 17
REMARK Flexibility Score: inf
ROOT
ATOM      1  C   UNL     1      -0.139   0.541   0.124  1.00  0.00     0.136 C 
ATOM      2  C   UNL     1       0.761  -0.621  -0.353  1.00  0.00     0.126 C 
ATOM      3  N   UNL     1       0.450  -1.880   0.350  1.00  0.00    -0.376 N 
ATOM      4  C   UNL     1      -0.898  -2.257   0.286  1.00  0.00     0.048 A 
ATOM      5  C   UNL     1      -1.925  -1.309   0.232  1.00  0.00     0.035 A 
ATOM      6  C   UNL     1      -1.611   0.128   0.170  1.00  0.00     0.084 C 
ATOM      7  N   UNL     1      -2.536   1.045   0.220  1.00  0.00    -0.176 NA
ATOM      8  N   UNL     1      -3.839   0.650   0.261  1.00  0.00    -0.243 N 
ATOM      9  C   UNL     1      -4.295  -0.647   0.266  1.00  0.00     0.272 C 
ATOM     10  O   UNL     1      -5.486  -0.931   0.275  1.00  0.00    -0.267 OA
ATOM     11  C   UNL     1      -3.263  -1.691   0.282  1.00  0.00     0.055 A 
ATOM     12  C   UNL     1      -3.608  -3.038   0.384  1.00  0.00     0.054 A 
ATOM     13  C   UNL     1      -2.594  -3.980   0.467  1.00  0.00     0.126 A 
ATOM     14  F   UNL     1      -2.906  -5.276   0.593  1.00  0.00    -0.207 F 
ATOM     15  C   UNL     1      -1.252  -3.602   0.439  1.00  0.00     0.065 A 
ATOM     16  H   UNL     1       1.079  -2.630   0.061  1.00  0.00     0.161 HD
ATOM     17  H   UNL     1      -4.539   1.386   0.247  1.00  0.00     0.194 HD
ENDROOT
BRANCH   1  18
ATOM     18  C   UNL     1      -0.005   1.726  -0.794  1.00  0.00     0.138 A 
ATOM     19  C   UNL     1      -0.519   3.599   0.858  1.00  0.00     0.176 C 
ATOM     20  N   UNL     1      -0.165   3.037  -0.420  1.00  0.00    -0.252 N 
ATOM     21  N   UNL     1       0.053   3.866  -1.459  1.00  0.00    -0.160 NA
ATOM     22  C   UNL     1       0.299   3.005  -2.445  1.00  0.00     0.246 A 
ATOM     23  N   UNL     1       0.277   1.690  -2.085  1.00  0.00    -0.219 NA
ENDBRANCH   1  18
BRANCH   2  24
ATOM     24  C   UNL     1       2.242  -0.322  -0.120  1.00  0.00    -0.024 A 
ATOM     25  C   UNL     1       3.066   0.028  -1.203  1.00  0.00     0.009 A 
ATOM     26  C   UNL     1       2.805  -0.368   1.170  1.00  0.00     0.009 A 
ATOM     27  C   UNL     1       4.417   0.320  -1.003  1.00  0.00     0.039 A 
ATOM     28  C   UNL     1       4.156  -0.078   1.367  1.00  0.00     0.039 A 
ATOM     29  C   UNL     1       4.949   0.263   0.278  1.00  0.00     0.123 A 
ATOM     30  F   UNL     1       6.245   0.542   0.468  1.00  0.00    -0.207 F 
ENDBRANCH   2  24
TORSDOF 2
