REMARK SMILES Cc1onc(-c2c(F)cccc2Cl)c1C(=O)N[C@@H]1C(=O)N2[C@@H]1SC(C)(C)[C@@H]2C(=O)O
REMARK SMILES IDX 18 1 19 2 20 3 21 4 22 5 23 6 24 7 25 8 26 9 27 10 17 11
REMARK SMILES IDX 15 12 16 13 14 15 1 16 2 17 3 18 4 19 5 20 6 21 7 22 12 23
REMARK SMILES IDX 8 24 9 25 11 26 13 27 10 28 28 29 29 30 30 31
REMARK H PARENT 17 14 30 32
REMARK Flexibility Score: inf
ROOT
ATOM      1  C   UNL     1       0.746  -1.417  -0.809  1.00  0.00     0.205 C 
ATOM      2  C   UNL     1       2.045  -2.090  -0.313  1.00  0.00     0.250 C 
ATOM      3  O   UNL     1       2.338  -2.922   0.513  1.00  0.00    -0.272 OA
ATOM      4  N   UNL     1       2.819  -1.252  -1.061  1.00  0.00    -0.311 N 
ATOM      5  C   UNL     1       1.709  -0.339  -1.375  1.00  0.00     0.176 C 
ATOM      6  S   UNL     1       2.008   1.155  -0.347  1.00  0.00    -0.125 SA
ATOM      7  C   UNL     1       3.637   0.565   0.318  1.00  0.00     0.044 C 
ATOM      8  C   UNL     1       4.611   1.749   0.280  1.00  0.00     0.026 C 
ATOM      9  C   UNL     1       3.416   0.170   1.789  1.00  0.00     0.026 C 
ATOM     10  C   UNL     1       4.047  -0.664  -0.533  1.00  0.00     0.211 C 
ENDROOT
BRANCH   1  11
ATOM     11  N   UNL     1      -0.210  -1.004   0.252  1.00  0.00    -0.337 N 
ATOM     12  C   UNL     1      -1.322  -0.254  -0.057  1.00  0.00     0.257 C 
ATOM     13  O   UNL     1      -1.575   0.069  -1.214  1.00  0.00    -0.269 OA
ATOM     14  H   UNL     1      -0.119  -1.396   1.181  1.00  0.00     0.164 HD
BRANCH  12  15
ATOM     15  C   UNL     1      -2.184   0.084   1.053  1.00  0.00     0.110 A 
ATOM     16  C   UNL     1      -0.605   0.279   3.165  1.00  0.00     0.092 C 
ATOM     17  C   UNL     1      -1.855   0.287   2.379  1.00  0.00     0.147 A 
ATOM     18  O   UNL     1      -2.978   0.592   3.080  1.00  0.00    -0.360 OA
ATOM     19  N   UNL     1      -4.063   0.623   2.233  1.00  0.00    -0.079 NA
ATOM     20  C   UNL     1      -3.589   0.337   1.011  1.00  0.00     0.131 A 
BRANCH  20  21
ATOM     21  C   UNL     1      -4.482   0.286  -0.135  1.00  0.00     0.059 A 
ATOM     22  C   UNL     1      -4.991   1.479  -0.656  1.00  0.00     0.134 A 
ATOM     23  C   UNL     1      -4.849  -0.921  -0.747  1.00  0.00     0.053 A 
ATOM     24  F   UNL     1      -4.654   2.659  -0.114  1.00  0.00    -0.206 F 
ATOM     25  C   UNL     1      -5.848   1.484  -1.756  1.00  0.00     0.040 A 
ATOM     26  C   UNL     1      -5.709  -0.921  -1.853  1.00  0.00     0.021 A 
ATOM     27  Cl  UNL     1      -4.281  -2.456  -0.180  1.00  0.00    -0.083 Cl
ATOM     28  C   UNL     1      -6.209   0.281  -2.357  1.00  0.00     0.005 A 
ENDBRANCH  20  21
ENDBRANCH  12  15
ENDBRANCH   1  11
BRANCH  10  29
ATOM     29  C   UNL     1       5.022  -0.341  -1.670  1.00  0.00     0.327 C 
ATOM     30  O   UNL     1       6.189  -0.006  -1.528  1.00  0.00    -0.250 OA
BRANCH  29  31
ATOM     31  O   UNL     1       4.501  -0.415  -2.913  1.00  0.00    -0.480 OA
ATOM     32  H   UNL     1       5.247  -0.181  -3.505  1.00  0.00     0.296 HD
ENDBRANCH  29  31
ENDBRANCH  10  29
TORSDOF 5
