REMARK SMILES CC(C)(O)CNc1nc(Nc2ccnc(C(F)(F)F)c2)nc(-c2cccc(C(F)(F)F)n2)n1
REMARK SMILES IDX 7 1 33 2 22 3 21 4 9 5 8 6 6 7 5 9 2 10 1 11 3 12 4 13 23 15
REMARK SMILES IDX 32 16 24 17 27 18 25 19 26 20 28 21 29 22 30 23 31 24 10 25
REMARK SMILES IDX 11 27 20 28 12 29 15 30 13 31 14 32 16 33 17 34 18 35 19 36
REMARK H PARENT 6 8 4 14 10 26
REMARK Flexibility Score: inf
ROOT
ATOM      1  C   UNL     1      -1.737  -0.563   0.157  1.00  0.00     0.228 A 
ATOM      2  N   UNL     1      -1.537   0.733   0.334  1.00  0.00    -0.191 NA
ATOM      3  C   UNL     1      -0.257   1.106   0.380  1.00  0.00     0.185 A 
ATOM      4  N   UNL     1       0.772   0.268   0.265  1.00  0.00    -0.191 NA
ATOM      5  C   UNL     1       0.475  -1.008   0.101  1.00  0.00     0.232 A 
ATOM      6  N   UNL     1      -0.770  -1.462   0.030  1.00  0.00    -0.177 NA
ENDROOT
BRANCH   1   7
ATOM      7  N   UNL     1      -3.072  -0.957   0.121  1.00  0.00    -0.351 N 
ATOM      8  H   UNL     1      -3.596  -0.097  -0.017  1.00  0.00     0.163 HD
BRANCH   7   9
ATOM      9  C   UNL     1      -3.359  -2.006  -0.863  1.00  0.00     0.150 C 
BRANCH   9  10
ATOM     10  C   UNL     1      -4.838  -2.456  -0.736  1.00  0.00     0.076 C 
ATOM     11  C   UNL     1      -5.084  -3.706  -1.583  1.00  0.00     0.043 C 
ATOM     12  C   UNL     1      -5.816  -1.353  -1.142  1.00  0.00     0.043 C 
BRANCH  10  13
ATOM     13  O   UNL     1      -5.104  -2.797   0.630  1.00  0.00    -0.389 OA
ATOM     14  H   UNL     1      -4.540  -2.203   1.166  1.00  0.00     0.211 HD
ENDBRANCH  10  13
ENDBRANCH   9  10
ENDBRANCH   7   9
ENDBRANCH   1   7
BRANCH   3  15
ATOM     15  C   UNL     1       0.050   2.547   0.565  1.00  0.00     0.109 A 
ATOM     16  N   UNL     1       1.355   2.923   0.427  1.00  0.00    -0.240 NA
ATOM     17  C   UNL     1      -0.937   3.486   0.864  1.00  0.00     0.032 A 
ATOM     18  C   UNL     1       1.696   4.235   0.580  1.00  0.00     0.145 A 
ATOM     19  C   UNL     1      -0.587   4.823   1.029  1.00  0.00     0.005 A 
ATOM     20  C   UNL     1       0.743   5.204   0.888  1.00  0.00     0.033 A 
BRANCH  18  21
ATOM     21  C   UNL     1       3.156   4.649   0.440  1.00  0.00     0.433 C 
ATOM     22  F   UNL     1       3.768   4.824   1.646  1.00  0.00    -0.165 F 
ATOM     23  F   UNL     1       3.298   5.844  -0.212  1.00  0.00    -0.165 F 
ATOM     24  F   UNL     1       3.923   3.764  -0.252  1.00  0.00    -0.165 F 
ENDBRANCH  18  21
ENDBRANCH   3  15
BRANCH   5  25
ATOM     25  N   UNL     1       1.474  -1.974  -0.007  1.00  0.00    -0.324 N 
ATOM     26  H   UNL     1       1.046  -2.888  -0.060  1.00  0.00     0.170 HD
BRANCH  25  27
ATOM     27  C   UNL     1       2.870  -1.928   0.101  1.00  0.00     0.045 A 
ATOM     28  C   UNL     1       3.601  -0.751   0.269  1.00  0.00     0.059 A 
ATOM     29  C   UNL     1       3.590  -3.122   0.004  1.00  0.00     0.046 A 
ATOM     30  C   UNL     1       4.995  -0.793   0.366  1.00  0.00     0.146 A 
ATOM     31  C   UNL     1       4.971  -3.093   0.100  1.00  0.00     0.114 A 
ATOM     32  N   UNL     1       5.684  -1.965   0.280  1.00  0.00    -0.252 NA
BRANCH  30  33
ATOM     33  C   UNL     1       5.764   0.512   0.529  1.00  0.00     0.433 C 
ATOM     34  F   UNL     1       6.088   1.085  -0.668  1.00  0.00    -0.165 F 
ATOM     35  F   UNL     1       5.068   1.464   1.219  1.00  0.00    -0.165 F 
ATOM     36  F   UNL     1       6.943   0.372   1.203  1.00  0.00    -0.165 F 
ENDBRANCH  30  33
ENDBRANCH  25  27
ENDBRANCH   5  25
TORSDOF 9
