REMARK SMILES CC#CC(=O)N1CCC[C@H]1c1nc(-c2ccc(C(=O)Nc3ccccn3)cc2)c2c(N)nccn12
REMARK SMILES IDX 11 1 12 2 13 3 29 4 30 5 31 6 32 7 33 8 34 9 35 10 10 13
REMARK SMILES IDX 6 14 7 15 8 16 9 17 4 18 5 19 3 20 1 21 2 22 14 23 15 24
REMARK SMILES IDX 28 25 16 26 27 27 17 28 18 29 19 30 20 31 21 33 22 34 26 35
REMARK SMILES IDX 23 36 25 37 24 38
REMARK H PARENT 31 11 31 12 20 32
REMARK Flexibility Score: inf
ROOT
ATOM      1  C   UNL     1      -1.465  -2.471  -0.863  1.00  0.00     0.137 A 
ATOM      2  N   UNL     1      -0.980  -1.247  -1.005  1.00  0.00    -0.230 NA
ATOM      3  C   UNL     1      -0.346  -0.952   0.176  1.00  0.00     0.100 A 
ATOM      4  C   UNL     1      -0.465  -1.994   1.069  1.00  0.00     0.116 A 
ATOM      5  C   UNL     1      -0.049  -2.250   2.428  1.00  0.00     0.150 C 
ATOM      6  N   UNL     1       0.623  -1.347   3.201  1.00  0.00    -0.382 N 
ATOM      7  N   UNL     1      -0.332  -3.401   2.998  1.00  0.00    -0.236 NA
ATOM      8  C   UNL     1      -1.024  -4.351   2.278  1.00  0.00     0.132 C 
ATOM      9  C   UNL     1      -1.447  -4.174   1.017  1.00  0.00     0.113 C 
ATOM     10  N   UNL     1      -1.171  -2.967   0.394  1.00  0.00    -0.297 N 
ATOM     11  H   UNL     1       0.590  -1.609   4.183  1.00  0.00     0.158 HD
ATOM     12  H   UNL     1       0.374  -0.372   3.047  1.00  0.00     0.158 HD
ENDROOT
BRANCH   1  13
ATOM     13  C   UNL     1      -2.214  -3.251  -1.908  1.00  0.00     0.153 C 
ATOM     14  N   UNL     1      -3.224  -2.407  -2.538  1.00  0.00    -0.322 N 
ATOM     15  C   UNL     1      -2.852  -2.030  -3.886  1.00  0.00     0.121 C 
ATOM     16  C   UNL     1      -1.406  -2.472  -4.037  1.00  0.00     0.024 C 
ATOM     17  C   UNL     1      -1.299  -3.649  -3.071  1.00  0.00     0.035 C 
BRANCH  14  18
ATOM     18  C   UNL     1      -4.430  -2.032  -2.003  1.00  0.00     0.299 C 
ATOM     19  O   UNL     1      -5.260  -1.361  -2.603  1.00  0.00    -0.259 OA
BRANCH  18  20
ATOM     20  C   UNL     1      -4.748  -2.488  -0.665  1.00  0.00    -0.005 C 
ATOM     21  C   UNL     1      -5.363  -3.312   1.796  1.00  0.00     0.108 C 
ATOM     22  C   UNL     1      -5.015  -2.871   0.443  1.00  0.00    -0.096 C 
ENDBRANCH  18  20
ENDBRANCH  14  18
ENDBRANCH   1  13
BRANCH   3  23
ATOM     23  C   UNL     1       0.322   0.309   0.395  1.00  0.00     0.003 A 
ATOM     24  C   UNL     1       1.710   0.361   0.578  1.00  0.00     0.011 A 
ATOM     25  C   UNL     1      -0.424   1.493   0.410  1.00  0.00     0.011 A 
ATOM     26  C   UNL     1       2.348   1.587   0.786  1.00  0.00     0.014 A 
ATOM     27  C   UNL     1       0.209   2.719   0.629  1.00  0.00     0.014 A 
ATOM     28  C   UNL     1       1.597   2.769   0.802  1.00  0.00     0.040 A 
BRANCH  28  29
ATOM     29  C   UNL     1       2.241   4.087   1.044  1.00  0.00     0.256 C 
ATOM     30  O   UNL     1       1.661   4.897   1.753  1.00  0.00    -0.269 OA
ATOM     31  N   UNL     1       3.441   4.263   0.406  1.00  0.00    -0.307 N 
ATOM     32  H   UNL     1       3.762   3.573  -0.256  1.00  0.00     0.171 HD
BRANCH  31  33
ATOM     33  C   UNL     1       4.301   5.359   0.470  1.00  0.00     0.132 A 
ATOM     34  C   UNL     1       4.106   6.457   1.295  1.00  0.00     0.047 A 
ATOM     35  N   UNL     1       5.371   5.243  -0.347  1.00  0.00    -0.239 NA
ATOM     36  C   UNL     1       5.048   7.485   1.279  1.00  0.00     0.005 A 
ATOM     37  C   UNL     1       6.268   6.254  -0.345  1.00  0.00     0.113 A 
ATOM     38  C   UNL     1       6.152   7.386   0.443  1.00  0.00     0.020 A 
ENDBRANCH  31  33
ENDBRANCH  28  29
ENDBRANCH   3  23
TORSDOF 6
