REMARK SMILES O=C1CCC(N2C(=O)c3ccccc3C2=O)C(=O)N1
REMARK SMILES IDX 6 1 7 2 8 3 9 4 10 5 11 6 12 7 13 8 14 9 15 10 16 11 5 12
REMARK SMILES IDX 1 13 2 14 3 15 19 16 4 17 17 18 18 20
REMARK H PARENT 19 19
REMARK Flexibility Score: inf
ROOT
ATOM      1  N   UNL     1      -0.042   0.309   0.148  1.00  0.00    -0.262 N 
ATOM      2  C   UNL     1       0.779  -0.178  -0.834  1.00  0.00     0.262 C 
ATOM      3  O   UNL     1       0.492  -0.819  -1.826  1.00  0.00    -0.269 OA
ATOM      4  C   UNL     1       2.142   0.198  -0.465  1.00  0.00     0.053 A 
ATOM      5  C   UNL     1       3.339  -0.021  -1.118  1.00  0.00     0.015 A 
ATOM      6  C   UNL     1       4.499   0.457  -0.500  1.00  0.00     0.001 A 
ATOM      7  C   UNL     1       4.435   1.131   0.738  1.00  0.00     0.001 A 
ATOM      8  C   UNL     1       3.210   1.337   1.380  1.00  0.00     0.015 A 
ATOM      9  C   UNL     1       2.079   0.857   0.748  1.00  0.00     0.053 A 
ATOM     10  C   UNL     1       0.676   0.904   1.151  1.00  0.00     0.262 C 
ATOM     11  O   UNL     1       0.274   1.397   2.187  1.00  0.00    -0.269 OA
ENDROOT
BRANCH   1  12
ATOM     12  C   UNL     1      -1.467   0.040   0.254  1.00  0.00     0.184 C 
ATOM     13  O   UNL     1      -4.989  -1.988  -0.488  1.00  0.00    -0.275 OA
ATOM     14  C   UNL     1      -3.943  -1.377  -0.288  1.00  0.00     0.226 C 
ATOM     15  C   UNL     1      -3.730   0.039  -0.771  1.00  0.00     0.103 C 
ATOM     16  N   UNL     1      -2.926  -1.937   0.445  1.00  0.00    -0.295 N 
ATOM     17  C   UNL     1      -2.256   0.321  -1.022  1.00  0.00     0.046 C 
ATOM     18  C   UNL     1      -1.677  -1.413   0.695  1.00  0.00     0.249 C 
ATOM     19  H   UNL     1      -3.072  -2.891   0.746  1.00  0.00     0.172 HD
ATOM     20  O   UNL     1      -0.831  -2.077   1.291  1.00  0.00    -0.272 OA
ENDBRANCH   1  12
TORSDOF 1
