REMARK SMILES CN(C)CCC=C1c2ccccc2COc2ccccc21
REMARK SMILES IDX 4 1 2 2 1 3 3 4 5 5 6 6 7 7 8 8 21 9 9 10 13 11 16 12 20 13
REMARK SMILES IDX 10 14 12 15 14 16 15 17 17 18 19 19 11 20 18 21
REMARK H PARENT
REMARK Flexibility Score: inf
ROOT
ATOM      1  C   UNL     1       2.662   0.287  -1.800  1.00  0.00     0.088 C 
ENDROOT
BRANCH   1   2
ATOM      2  N   UNL     1       3.441  -0.203  -0.645  1.00  0.00    -0.309 NA
ATOM      3  C   UNL     1       3.181   0.577   0.567  1.00  0.00     0.104 C 
ATOM      4  C   UNL     1       4.874  -0.149  -0.952  1.00  0.00     0.104 C 
ENDBRANCH   1   2
BRANCH   1   5
ATOM      5  C   UNL     1       1.181  -0.150  -1.826  1.00  0.00     0.043 C 
BRANCH   5   6
ATOM      6  C   UNL     1       0.264   0.677  -0.958  1.00  0.00    -0.016 C 
ATOM      7  C   UNL     1      -0.668   0.255  -0.072  1.00  0.00    -0.011 C 
ATOM      8  C   UNL     1      -0.939  -1.188   0.112  1.00  0.00    -0.011 A 
ATOM      9  C   UNL     1      -1.526   1.286   0.588  1.00  0.00     0.024 A 
ATOM     10  C   UNL     1       0.004  -2.064   0.664  1.00  0.00     0.009 A 
ATOM     11  C   UNL     1      -2.211  -1.667  -0.237  1.00  0.00    -0.003 A 
ATOM     12  C   UNL     1      -2.926   1.172   0.702  1.00  0.00     0.127 A 
ATOM     13  C   UNL     1      -0.897   2.391   1.201  1.00  0.00     0.012 A 
ATOM     14  C   UNL     1      -0.309  -3.412   0.845  1.00  0.00     0.001 A 
ATOM     15  C   UNL     1      -2.521  -3.020  -0.044  1.00  0.00     0.008 A 
ATOM     16  C   UNL     1      -3.224  -0.697  -0.785  1.00  0.00     0.266 C 
ATOM     17  O   UNL     1      -3.732   0.164   0.233  1.00  0.00    -0.488 OA
ATOM     18  C   UNL     1      -3.650   2.153   1.399  1.00  0.00     0.047 A 
ATOM     19  C   UNL     1      -1.631   3.366   1.880  1.00  0.00     0.001 A 
ATOM     20  C   UNL     1      -1.570  -3.889   0.491  1.00  0.00     0.000 A 
ATOM     21  C   UNL     1      -3.011   3.248   1.977  1.00  0.00     0.004 A 
ENDBRANCH   5   6
ENDBRANCH   1   5
TORSDOF 3
