REMARK SMILES Nc1c2c(nc3ccccc13)CCCC2
REMARK SMILES IDX 2 1 3 2 4 3 5 4 6 5 7 6 8 7 9 8 10 9 11 10 12 11 13 12 14 13
REMARK SMILES IDX 15 14 1 15
REMARK H PARENT 1 16 1 17
REMARK Flexibility Score: inf
ROOT
ATOM      1  C   UNL     1       0.456   1.146  -0.097  1.00  0.00     0.046 A 
ATOM      2  C   UNL     1      -0.780   0.477  -0.028  1.00  0.00    -0.003 A 
ATOM      3  C   UNL     1      -0.767  -0.917  -0.044  1.00  0.00     0.046 A 
ATOM      4  N   UNL     1       0.374  -1.644  -0.046  1.00  0.00    -0.252 NA
ATOM      5  C   UNL     1       1.552  -1.006  -0.037  1.00  0.00     0.073 A 
ATOM      6  C   UNL     1       2.707  -1.776  -0.006  1.00  0.00     0.029 A 
ATOM      7  C   UNL     1       3.979  -1.203   0.026  1.00  0.00     0.002 A 
ATOM      8  C   UNL     1       4.106   0.178   0.031  1.00  0.00     0.001 A 
ATOM      9  C   UNL     1       2.960   0.973  -0.003  1.00  0.00     0.012 A 
ATOM     10  C   UNL     1       1.664   0.400  -0.045  1.00  0.00     0.023 A 
ATOM     11  C   UNL     1      -2.041  -1.721   0.002  1.00  0.00     0.056 C 
ATOM     12  C   UNL     1      -3.271  -0.927  -0.422  1.00  0.00     0.007 C 
ATOM     13  C   UNL     1      -3.304   0.405   0.314  1.00  0.00     0.005 C 
ATOM     14  C   UNL     1      -2.080   1.247  -0.045  1.00  0.00     0.039 C 
ENDROOT
BRANCH   1  15
ATOM     15  N   UNL     1       0.457   2.563  -0.004  1.00  0.00    -0.398 N 
ATOM     16  H   UNL     1       1.281   2.980  -0.424  1.00  0.00     0.156 HD
ATOM     17  H   UNL     1       0.391   2.845   0.973  1.00  0.00     0.156 HD
ENDBRANCH   1  15
TORSDOF 1
