REMARK SMILES N=C(N)N1CCc2ccccc2C1
REMARK SMILES IDX 4 1 5 2 6 3 7 4 8 5 9 6 10 7 11 8 12 9 13 10 2 11 1 12 3 14
REMARK H PARENT 1 13 3 15 3 16
REMARK Flexibility Score: inf
ROOT
ATOM      1  N   UNL     1      -1.464  -0.056  -0.347  1.00  0.00    -0.339 N 
ATOM      2  C   UNL     1      -0.807  -1.191  -1.015  1.00  0.00     0.124 C 
ATOM      3  C   UNL     1       0.359  -1.688  -0.162  1.00  0.00     0.057 C 
ATOM      4  C   UNL     1       1.296  -0.565   0.197  1.00  0.00    -0.041 A 
ATOM      5  C   UNL     1       2.615  -0.845   0.580  1.00  0.00     0.004 A 
ATOM      6  C   UNL     1       3.479   0.189   0.936  1.00  0.00     0.000 A 
ATOM      7  C   UNL     1       3.031   1.508   0.920  1.00  0.00     0.000 A 
ATOM      8  C   UNL     1       1.716   1.793   0.554  1.00  0.00     0.006 A 
ATOM      9  C   UNL     1       0.831   0.762   0.198  1.00  0.00    -0.025 A 
ATOM     10  C   UNL     1      -0.587   1.114  -0.205  1.00  0.00     0.155 C 
ENDROOT
BRANCH   1  11
ATOM     11  C   UNL     1      -2.819   0.096  -0.409  1.00  0.00     0.188 C 
ATOM     12  N   UNL     1      -3.491   1.186  -0.523  1.00  0.00    -0.269 NA
ATOM     13  H   UNL     1      -2.862   1.981  -0.616  1.00  0.00     0.191 HD
ATOM     14  N   UNL     1      -3.531  -1.044  -0.284  1.00  0.00    -0.370 N 
ATOM     15  H   UNL     1      -3.204  -1.609   0.488  1.00  0.00     0.159 HD
ATOM     16  H   UNL     1      -4.510  -0.806  -0.165  1.00  0.00     0.159 HD
ENDBRANCH   1  11
TORSDOF 1
