REMARK SMILES CN1C(C(=O)Nc2ccccn2)=C(O)c2sccc2S1(=O)=O
REMARK SMILES IDX 1 1 2 2 3 3 13 4 15 5 16 6 17 7 18 8 19 9 20 10 21 11 22 12
REMARK SMILES IDX 4 13 5 14 6 15 7 17 8 18 12 19 9 20 11 21 10 22 14 23
REMARK H PARENT 6 16 14 24
REMARK Flexibility Score: inf
ROOT
ATOM      1  C   UNL     1      -1.141  -2.003   0.419  1.00  0.00     0.164 C 
ATOM      2  N   UNL     1      -1.088  -0.695  -0.293  1.00  0.00    -0.260 N 
ATOM      3  C   UNL     1      -0.695   0.427   0.565  1.00  0.00     0.160 C 
ATOM      4  C   UNL     1      -1.613   1.182   1.216  1.00  0.00     0.164 C 
ATOM      5  C   UNL     1      -3.014   1.019   0.978  1.00  0.00     0.092 A 
ATOM      6  S   UNL     1      -4.258   1.645   1.983  1.00  0.00    -0.139 S 
ATOM      7  C   UNL     1      -5.496   1.023   0.970  1.00  0.00     0.067 A 
ATOM      8  C   UNL     1      -4.990   0.346  -0.118  1.00  0.00     0.035 A 
ATOM      9  C   UNL     1      -3.575   0.355  -0.091  1.00  0.00     0.109 A 
ATOM     10  S   UNL     1      -2.497  -0.361  -1.216  1.00  0.00     0.265 S 
ATOM     11  O   UNL     1      -2.196   0.699  -2.150  1.00  0.00    -0.201 OA
ATOM     12  O   UNL     1      -3.127  -1.601  -1.609  1.00  0.00    -0.201 OA
ENDROOT
BRANCH   3  13
ATOM     13  C   UNL     1       0.777   0.654   0.780  1.00  0.00     0.278 C 
ATOM     14  O   UNL     1       1.146   1.385   1.693  1.00  0.00    -0.267 OA
ATOM     15  N   UNL     1       1.538  -0.016  -0.148  1.00  0.00    -0.305 N 
ATOM     16  H   UNL     1       1.034  -0.517  -0.868  1.00  0.00     0.171 HD
BRANCH  15  17
ATOM     17  C   UNL     1       2.934  -0.026  -0.206  1.00  0.00     0.132 A 
ATOM     18  C   UNL     1       3.526  -0.714  -1.261  1.00  0.00     0.047 A 
ATOM     19  N   UNL     1       3.661   0.598   0.736  1.00  0.00    -0.239 NA
ATOM     20  C   UNL     1       4.917  -0.752  -1.351  1.00  0.00     0.005 A 
ATOM     21  C   UNL     1       5.007   0.552   0.631  1.00  0.00     0.113 A 
ATOM     22  C   UNL     1       5.676  -0.105  -0.386  1.00  0.00     0.020 A 
ENDBRANCH  15  17
ENDBRANCH   3  13
BRANCH   4  23
ATOM     23  O   UNL     1      -1.292   2.188   2.110  1.00  0.00    -0.504 OA
ATOM     24  H   UNL     1      -0.315   2.208   2.226  1.00  0.00     0.293 HD
ENDBRANCH   4  23
TORSDOF 3
