REMARK SMILES CC(=O)Oc1ccccc1C(=O)Nc1ncc([N+](=O)[O-])s1
REMARK SMILES IDX 5 1 6 2 7 3 8 4 9 5 10 6 4 7 2 8 1 9 3 10 11 11 12 12 13 13
REMARK SMILES IDX 14 15 15 16 21 17 16 18 17 19 18 20 19 21 20 22
REMARK H PARENT 13 14
REMARK Flexibility Score: inf
ROOT
ATOM      1  C   UNL     1      -2.017   0.214  -0.712  1.00  0.00     0.143 A 
ATOM      2  C   UNL     1      -3.311   0.575  -1.101  1.00  0.00     0.048 A 
ATOM      3  C   UNL     1      -3.686   0.458  -2.439  1.00  0.00     0.004 A 
ATOM      4  C   UNL     1      -2.772  -0.010  -3.382  1.00  0.00     0.001 A 
ATOM      5  C   UNL     1      -1.473  -0.348  -2.993  1.00  0.00     0.018 A 
ATOM      6  C   UNL     1      -1.074  -0.221  -1.654  1.00  0.00     0.083 A 
ENDROOT
BRANCH   1   7
ATOM      7  O   UNL     1      -1.677   0.342   0.641  1.00  0.00    -0.426 OA
BRANCH   7   8
ATOM      8  C   UNL     1      -2.149  -0.712   1.423  1.00  0.00     0.308 C 
ATOM      9  C   UNL     1      -1.709  -0.493   2.840  1.00  0.00     0.139 C 
ATOM     10  O   UNL     1      -2.809  -1.667   1.043  1.00  0.00    -0.252 OA
ENDBRANCH   7   8
ENDBRANCH   1   7
BRANCH   6  11
ATOM     11  C   UNL     1       0.340  -0.561  -1.319  1.00  0.00     0.261 C 
ATOM     12  O   UNL     1       0.913  -1.403  -1.999  1.00  0.00    -0.269 OA
ATOM     13  N   UNL     1       0.882   0.162  -0.281  1.00  0.00    -0.298 N 
ATOM     14  H   UNL     1       0.340   0.879   0.177  1.00  0.00     0.172 HD
BRANCH  13  15
ATOM     15  C   UNL     1       2.162  -0.023   0.159  1.00  0.00     0.195 A 
ATOM     16  N   UNL     1       3.076  -0.865  -0.250  1.00  0.00    -0.221 NA
ATOM     17  S   UNL     1       2.602   1.010   1.450  1.00  0.00    -0.024 S 
ATOM     18  C   UNL     1       4.228  -0.693   0.496  1.00  0.00     0.212 A 
ATOM     19  C   UNL     1       4.140   0.282   1.461  1.00  0.00     0.345 A 
BRANCH  19  20
ATOM     20  N   UNL     1       5.157   0.681   2.379  1.00  0.00     0.076 N 
ATOM     21  O   UNL     1       6.243   0.095   2.285  1.00  0.00    -0.257 OA
ATOM     22  O   UNL     1       4.887   1.570   3.196  1.00  0.00    -0.257 OA
ENDBRANCH  19  20
ENDBRANCH  13  15
ENDBRANCH   6  11
TORSDOF 5
