REMARK SMILES CCCC(CCC)C(=O)O[C@H]1C[C@H]2CC[C@@H](C1)[N+]2(C)C
REMARK SMILES IDX 4 1 3 2 2 3 1 4 5 5 6 6 7 7 8 8 9 9 10 10 11 11 12 12 17 13
REMARK SMILES IDX 13 14 16 15 14 16 18 17 15 18 19 19 20 20
REMARK H PARENT
REMARK Flexibility Score: inf
ROOT
ATOM      1  C   UNL     1      -2.883  -0.074  -0.778  1.00  0.00     0.099 C 
ENDROOT
BRANCH   1   2
ATOM      2  C   UNL     1      -2.865   0.720   0.542  1.00  0.00     0.015 C 
BRANCH   2   3
ATOM      3  C   UNL     1      -2.844   2.236   0.316  1.00  0.00    -0.003 C 
ATOM      4  C   UNL     1      -2.806   2.992   1.635  1.00  0.00     0.004 C 
ENDBRANCH   2   3
ENDBRANCH   1   2
BRANCH   1   5
ATOM      5  C   UNL     1      -3.320  -1.537  -0.567  1.00  0.00     0.015 C 
BRANCH   5   6
ATOM      6  C   UNL     1      -2.401  -2.353   0.347  1.00  0.00    -0.003 C 
ATOM      7  C   UNL     1      -2.899  -3.783   0.498  1.00  0.00     0.004 C 
ENDBRANCH   5   6
ENDBRANCH   1   5
BRANCH   1   8
ATOM      8  C   UNL     1      -1.579  -0.048  -1.568  1.00  0.00     0.309 C 
ATOM      9  O   UNL     1      -1.473  -0.461  -2.715  1.00  0.00    -0.252 OA
BRANCH   8  10
ATOM     10  O   UNL     1      -0.531   0.440  -0.844  1.00  0.00    -0.462 OA
BRANCH  10  11
ATOM     11  C   UNL     1       0.731   0.547  -1.541  1.00  0.00     0.188 C 
ATOM     12  C   UNL     1       1.499   1.725  -0.916  1.00  0.00     0.110 C 
ATOM     13  C   UNL     1       1.469  -0.801  -1.472  1.00  0.00     0.110 C 
ATOM     14  C   UNL     1       2.380   1.334   0.281  1.00  0.00     0.189 C 
ATOM     15  C   UNL     1       2.351  -0.965  -0.223  1.00  0.00     0.189 C 
ATOM     16  C   UNL     1       1.542   0.682   1.392  1.00  0.00     0.071 C 
ATOM     17  N   UNL     1       3.347   0.207  -0.129  1.00  0.00    -0.323 N 
ATOM     18  C   UNL     1       1.522  -0.814   1.063  1.00  0.00     0.071 C 
ATOM     19  C   UNL     1       4.408  -0.047   0.965  1.00  0.00     0.334 C 
ATOM     20  C   UNL     1       4.157   0.474  -1.398  1.00  0.00     0.334 C 
ENDBRANCH  10  11
ENDBRANCH   8  10
ENDBRANCH   1   8
TORSDOF 7
