REMARK SMILES Cc1ccnc(NS(=O)(=O)c2ccc(N)cc2)n1
REMARK SMILES IDX 8 1 9 2 10 3 7 4 6 6 1 7 2 8 3 9 18 10 4 11 5 12 11 13 12 14
REMARK SMILES IDX 17 15 13 16 16 17 14 18 15 19
REMARK H PARENT 7 5 15 20 15 21
REMARK Flexibility Score: inf
ROOT
ATOM      1  S   UNL     1      -0.501  -1.710  -1.387  1.00  0.00     0.264 S 
ATOM      2  O   UNL     1      -0.060  -2.769  -0.504  1.00  0.00    -0.201 OA
ATOM      3  O   UNL     1      -1.037  -2.036  -2.695  1.00  0.00    -0.201 OA
ENDROOT
BRANCH   1   4
ATOM      4  N   UNL     1       0.736  -0.638  -1.659  1.00  0.00    -0.247 N 
ATOM      5  H   UNL     1       1.204  -0.769  -2.547  1.00  0.00     0.183 HD
BRANCH   4   6
ATOM      6  C   UNL     1       1.610  -0.386  -0.610  1.00  0.00     0.236 A 
ATOM      7  C   UNL     1       5.170   0.398  -0.467  1.00  0.00     0.067 C 
ATOM      8  C   UNL     1       3.741   0.203  -0.058  1.00  0.00     0.043 A 
ATOM      9  C   UNL     1       3.352   0.431   1.248  1.00  0.00     0.044 A 
ATOM     10  N   UNL     1       2.870  -0.188  -1.012  1.00  0.00    -0.218 NA
ATOM     11  C   UNL     1       2.017   0.244   1.524  1.00  0.00     0.117 A 
ATOM     12  N   UNL     1       1.118  -0.145   0.605  1.00  0.00    -0.221 NA
ENDBRANCH   4   6
ENDBRANCH   1   4
BRANCH   1  13
ATOM     13  C   UNL     1      -1.741  -0.737  -0.570  1.00  0.00     0.088 A 
ATOM     14  C   UNL     1      -2.041  -0.967   0.773  1.00  0.00     0.024 A 
ATOM     15  C   UNL     1      -2.432   0.237  -1.294  1.00  0.00     0.024 A 
ATOM     16  C   UNL     1      -3.038  -0.209   1.394  1.00  0.00     0.027 A 
ATOM     17  C   UNL     1      -3.427   0.987  -0.661  1.00  0.00     0.027 A 
ATOM     18  C   UNL     1      -3.773   0.737   0.672  1.00  0.00     0.031 A 
BRANCH  18  19
ATOM     19  N   UNL     1      -4.686   1.570   1.329  1.00  0.00    -0.399 N 
ATOM     20  H   UNL     1      -5.378   1.985   0.714  1.00  0.00     0.156 HD
ATOM     21  H   UNL     1      -5.106   1.147   2.151  1.00  0.00     0.156 HD
ENDBRANCH  18  19
ENDBRANCH   1  13
TORSDOF 4
