REMARK SMILES CN1CCCC(CN2c3ccccc3Sc3ccccc32)C1
REMARK SMILES IDX 7 1 6 2 1 3 2 4 3 5 22 6 4 7 5 8 8 9 9 10 21 11 10 12 14 13
REMARK SMILES IDX 16 14 20 15 11 16 13 17 15 18 17 19 19 20 12 21 18 22
REMARK H PARENT
REMARK Flexibility Score: inf
ROOT
ATOM      1  C   UNL     1       0.056  -0.523   1.438  1.00  0.00     0.127 C 
ENDROOT
BRANCH   1   2
ATOM      2  C   UNL     1      -1.146  -0.750   0.490  1.00  0.00     0.023 C 
ATOM      3  C   UNL     1      -3.407   1.485  -1.541  1.00  0.00     0.105 C 
ATOM      4  N   UNL     1      -2.706   0.254  -1.187  1.00  0.00    -0.306 NA
ATOM      5  C   UNL     1      -3.624  -0.819  -0.794  1.00  0.00     0.084 C 
ATOM      6  C   UNL     1      -1.628   0.524  -0.219  1.00  0.00     0.089 C 
ATOM      7  C   UNL     1      -3.682  -1.043   0.712  1.00  0.00     0.016 C 
ATOM      8  C   UNL     1      -2.307  -1.387   1.283  1.00  0.00     0.008 C 
ENDBRANCH   1   2
BRANCH   1   9
ATOM      9  N   UNL     1       1.296  -0.107   0.735  1.00  0.00    -0.339 N 
ATOM     10  C   UNL     1       1.652   1.277   0.761  1.00  0.00     0.055 A 
ATOM     11  C   UNL     1       2.072  -1.152   0.134  1.00  0.00     0.055 A 
ATOM     12  C   UNL     1       0.840   2.268   1.364  1.00  0.00     0.027 A 
ATOM     13  C   UNL     1       2.843   1.750   0.173  1.00  0.00     0.036 A 
ATOM     14  C   UNL     1       3.296  -0.893  -0.514  1.00  0.00     0.036 A 
ATOM     15  C   UNL     1       1.666  -2.509   0.148  1.00  0.00     0.027 A 
ATOM     16  C   UNL     1       1.184   3.627   1.393  1.00  0.00     0.002 A 
ATOM     17  C   UNL     1       3.187   3.119   0.205  1.00  0.00     0.017 A 
ATOM     18  S   UNL     1       4.023   0.718  -0.658  1.00  0.00    -0.086 SA
ATOM     19  C   UNL     1       4.049  -1.932  -1.102  1.00  0.00     0.017 A 
ATOM     20  C   UNL     1       2.416  -3.538  -0.437  1.00  0.00     0.002 A 
ATOM     21  C   UNL     1       2.362   4.055   0.813  1.00  0.00     0.001 A 
ATOM     22  C   UNL     1       3.613  -3.249  -1.065  1.00  0.00     0.001 A 
ENDBRANCH   1   9
TORSDOF 2
