REMARK SMILES CCN(CC)CCN1C(=O)CN=C(c2ccccc2F)c2cc(Cl)ccc21
REMARK SMILES IDX 7 1 6 2 3 3 2 4 1 5 4 6 5 7 8 8 9 9 10 10 27 12 21 13 26 14
REMARK SMILES IDX 22 15 25 16 23 17 24 18 13 19 12 20 14 21 15 22 19 23 16 24
REMARK SMILES IDX 18 25 20 26 17 27 11 28
REMARK H PARENT
REMARK Flexibility Score: 90.00
ROOT
ATOM      1  C   UNL     1       1.424   0.204   0.356  1.00  0.00     0.141 C 
ENDROOT
BRANCH   1   2
ATOM      2  C   UNL     1       2.725   0.430  -0.452  1.00  0.00     0.106 C 
BRANCH   2   3
ATOM      3  N   UNL     1       4.006   0.277   0.273  1.00  0.00    -0.302 NA
BRANCH   3   4
ATOM      4  C   UNL     1       4.183   1.374   1.244  1.00  0.00     0.081 C 
ATOM      5  C   UNL     1       5.642   1.576   1.643  1.00  0.00     0.021 C 
ENDBRANCH   3   4
BRANCH   3   6
ATOM      6  C   UNL     1       4.195  -1.042   0.893  1.00  0.00     0.081 C 
ATOM      7  C   UNL     1       4.205  -2.189  -0.113  1.00  0.00     0.021 C 
ENDBRANCH   3   6
ENDBRANCH   2   3
ENDBRANCH   1   2
BRANCH   1   8
ATOM      8  N   UNL     1       0.209   0.578  -0.384  1.00  0.00    -0.309 N 
BRANCH   8   9
ATOM      9  C   UNL     1      -0.055   1.951  -0.484  1.00  0.00     0.248 CG0
ATOM     10  O   UNL     1       0.654   2.800   0.066  1.00  0.00    -0.272 OA
ATOM     11  G   UNL     1      -1.221   2.370  -1.367  1.00  0.00     0.000 G0
ENDBRANCH   8   9
BRANCH   8  12
ATOM     12  C   UNL     1      -0.612  -0.437  -0.973  1.00  0.00     0.053 A 
ATOM     13  C   UNL     1      -2.010  -0.313  -1.123  1.00  0.00     0.026 A 
ATOM     14  C   UNL     1      -0.015  -1.623  -1.439  1.00  0.00     0.028 A 
ATOM     15  C   UNL     1      -2.753  -1.304  -1.795  1.00  0.00     0.033 A 
ATOM     16  C   UNL     1      -0.760  -2.619  -2.080  1.00  0.00     0.023 A 
ATOM     17  C   UNL     1      -2.124  -2.449  -2.267  1.00  0.00     0.041 A 
ATOM     18  Cl  UNL     1      -3.038  -3.661  -3.072  1.00  0.00    -0.084 Cl
BRANCH  13  19
ATOM     19  C   UNL     1      -2.787   0.819  -0.536  1.00  0.00     0.078 C 
ATOM     20  N   UNL     1      -2.468   2.062  -0.674  1.00  0.00    -0.274 NA
BRANCH  19  21
ATOM     21  C   UNL     1      -4.024   0.521   0.247  1.00  0.00     0.036 A 
ATOM     22  C   UNL     1      -5.119   1.390   0.147  1.00  0.00     0.013 A 
ATOM     23  C   UNL     1      -4.104  -0.580   1.104  1.00  0.00     0.132 A 
ATOM     24  C   UNL     1      -6.285   1.137   0.873  1.00  0.00     0.001 A 
ATOM     25  C   UNL     1      -5.267  -0.834   1.829  1.00  0.00     0.040 A 
ATOM     26  F   UNL     1      -3.063  -1.409   1.265  1.00  0.00    -0.206 F 
ATOM     27  C   UNL     1      -6.361   0.023   1.711  1.00  0.00     0.003 A 
ENDBRANCH  19  21
BRANCH  20  28
ATOM     28  C   UNL     1      -1.221   2.370  -1.367  1.00  0.00     0.243 CG0
ATOM     29  G   UNL     1      -0.055   1.951  -0.484  1.00  0.00     0.000 G0
ENDBRANCH  20  28
ENDBRANCH  13  19
ENDBRANCH   8  12
ENDBRANCH   1   8
TORSDOF 6
