REMARK SMILES CC(C(=O)O)c1ccc(-c2ccccc2)c(F)c1
REMARK SMILES IDX 1 1 2 2 3 3 4 4 5 5 6 7 7 8 18 9 8 10 16 11 9 12 17 13 10 14
REMARK SMILES IDX 11 15 15 16 12 17 14 18 13 19
REMARK H PARENT 5 6
REMARK Flexibility Score: inf
ROOT
ATOM      1  C   UNL     1      -3.870  -1.506  -0.240  1.00  0.00     0.025 C 
ATOM      2  C   UNL     1      -3.360  -0.124   0.170  1.00  0.00     0.126 C 
ENDROOT
BRANCH   2   3
ATOM      3  C   UNL     1      -4.020   0.941  -0.690  1.00  0.00     0.310 C 
ATOM      4  O   UNL     1      -3.539   1.563  -1.623  1.00  0.00    -0.252 OA
BRANCH   3   5
ATOM      5  O   UNL     1      -5.306   1.159  -0.335  1.00  0.00    -0.481 OA
ATOM      6  H   UNL     1      -5.606   1.853  -0.960  1.00  0.00     0.296 HD
ENDBRANCH   3   5
ENDBRANCH   2   3
BRANCH   2   7
ATOM      7  C   UNL     1      -1.840  -0.062   0.151  1.00  0.00    -0.031 A 
ATOM      8  C   UNL     1      -1.103  -0.281  -1.021  1.00  0.00     0.005 A 
ATOM      9  C   UNL     1      -1.136   0.212   1.331  1.00  0.00     0.044 A 
ATOM     10  C   UNL     1       0.297  -0.229  -1.011  1.00  0.00     0.012 A 
ATOM     11  C   UNL     1       0.260   0.261   1.332  1.00  0.00     0.131 A 
ATOM     12  C   UNL     1       1.010   0.040   0.168  1.00  0.00     0.017 A 
ATOM     13  F   UNL     1       0.875   0.517   2.497  1.00  0.00    -0.206 F 
BRANCH  12  14
ATOM     14  C   UNL     1       2.484   0.091   0.166  1.00  0.00    -0.015 A 
ATOM     15  C   UNL     1       3.245  -0.945  -0.403  1.00  0.00     0.009 A 
ATOM     16  C   UNL     1       3.176   1.179   0.725  1.00  0.00     0.009 A 
ATOM     17  C   UNL     1       4.642  -0.896  -0.414  1.00  0.00     0.001 A 
ATOM     18  C   UNL     1       4.573   1.231   0.715  1.00  0.00     0.001 A 
ATOM     19  C   UNL     1       5.305   0.193   0.145  1.00  0.00     0.000 A 
ENDBRANCH  12  14
ENDBRANCH   2   7
TORSDOF 4
