REMARK SMILES CCC1(c2cccc(O)c2)CCCCN(C)C1
REMARK SMILES IDX 3 1 2 2 1 3 4 4 5 5 10 6 6 7 8 8 7 9 9 10 11 12 12 13 13 14
REMARK SMILES IDX 17 16 15 17 16 18 14 19
REMARK H PARENT 9 11
REMARK Flexibility Score: 90.00
ROOT
ATOM      1  C   UNL     1       0.069  -0.609   0.049  1.00  0.00     0.008 C 
ENDROOT
BRANCH   1   2
ATOM      2  C   UNL     1       0.055  -2.172  -0.090  1.00  0.00     0.010 C 
ATOM      3  C   UNL     1       0.797  -2.960   0.990  1.00  0.00     0.005 C 
ENDBRANCH   1   2
BRANCH   1   4
ATOM      4  C   UNL     1       1.470   0.024  -0.226  1.00  0.00    -0.037 A 
ATOM      5  C   UNL     1       2.564  -0.709  -0.720  1.00  0.00     0.004 A 
ATOM      6  C   UNL     1       1.663   1.411  -0.042  1.00  0.00     0.050 A 
ATOM      7  C   UNL     1       3.799  -0.099  -0.977  1.00  0.00     0.004 A 
ATOM      8  C   UNL     1       2.895   2.011  -0.303  1.00  0.00     0.115 A 
ATOM      9  C   UNL     1       3.967   1.264  -0.762  1.00  0.00     0.046 A 
BRANCH   8  10
ATOM     10  O   UNL     1       3.082   3.350  -0.122  1.00  0.00    -0.508 OA
ATOM     11  H   UNL     1       2.249   3.731   0.201  1.00  0.00     0.293 HD
ENDBRANCH   8  10
ENDBRANCH   1   4
BRANCH   1  12
ATOM     12  C   UNL     1      -0.390  -0.207   1.493  1.00  0.00     0.013 C 
BRANCH  12  13
ATOM     13  C   UNL     1      -1.787  -0.647   1.935  1.00  0.00     0.002 C 
BRANCH  13  14
ATOM     14  C   UNL     1      -2.914  -0.471   0.922  1.00  0.00     0.016 CG0
ATOM     15  G   UNL     1      -2.896   0.824   0.100  1.00  0.00     0.000 G0
ENDBRANCH  13  14
ENDBRANCH  12  13
ENDBRANCH   1  12
BRANCH   1  16
ATOM     16  C   UNL     1      -0.907  -0.048  -1.064  1.00  0.00     0.095 C 
BRANCH  16  17
ATOM     17  N   UNL     1      -1.657   1.142  -0.629  1.00  0.00    -0.305 NA
ATOM     18  C   UNL     1      -1.936   2.042  -1.748  1.00  0.00     0.105 C 
BRANCH  17  19
ATOM     19  C   UNL     1      -2.896   0.824   0.100  1.00  0.00     0.084 CG0
ATOM     20  G   UNL     1      -2.914  -0.471   0.922  1.00  0.00     0.000 G0
ENDBRANCH  17  19
ENDBRANCH  16  17
ENDBRANCH   1  16
TORSDOF 3
