REMARK SMILES CNC(=O)c1ccccc1Sc1ccc2c(/C=C/c3ccccn3)n[nH]c2c1
REMARK SMILES IDX 12 1 13 2 14 3 15 4 16 5 25 6 26 7 27 8 28 9 11 11 10 12
REMARK SMILES IDX 5 13 6 14 7 15 9 16 8 17 3 18 1 19 2 20 4 22 17 23 18 24
REMARK SMILES IDX 19 25 20 26 24 27 21 28 23 29 22 30
REMARK H PARENT 26 10 2 21
REMARK Flexibility Score: inf
ROOT
ATOM      1  C   UNL     1      -1.644   0.239   1.419  1.00  0.00     0.014 A 
ATOM      2  C   UNL     1      -0.591  -0.338   2.135  1.00  0.00     0.016 A 
ATOM      3  C   UNL     1       0.728  -0.268   1.663  1.00  0.00     0.014 A 
ATOM      4  C   UNL     1       0.987   0.399   0.450  1.00  0.00     0.027 A 
ATOM      5  C   UNL     1       2.137   0.685  -0.349  1.00  0.00     0.093 A 
ATOM      6  N   UNL     1       1.805   1.383  -1.446  1.00  0.00    -0.175 NA
ATOM      7  N   UNL     1       0.474   1.532  -1.351  1.00  0.00    -0.277 N 
ATOM      8  C   UNL     1      -0.078   0.971  -0.235  1.00  0.00     0.067 A 
ATOM      9  C   UNL     1      -1.401   0.919   0.218  1.00  0.00     0.043 A 
ATOM     10  H   UNL     1      -0.007   2.033  -2.089  1.00  0.00     0.190 HD
ENDROOT
BRANCH   1  11
ATOM     11  S   UNL     1      -3.307   0.122   2.069  1.00  0.00    -0.089 SA
BRANCH  11  12
ATOM     12  C   UNL     1      -4.021  -1.032   0.897  1.00  0.00     0.025 A 
ATOM     13  C   UNL     1      -4.740  -0.654  -0.250  1.00  0.00     0.053 A 
ATOM     14  C   UNL     1      -5.201  -1.637  -1.143  1.00  0.00     0.015 A 
ATOM     15  C   UNL     1      -4.982  -2.989  -0.885  1.00  0.00     0.001 A 
ATOM     16  C   UNL     1      -3.815  -2.400   1.145  1.00  0.00     0.016 A 
ATOM     17  C   UNL     1      -4.293  -3.371   0.262  1.00  0.00     0.001 A 
BRANCH  13  18
ATOM     18  C   UNL     1      -5.040   0.753  -0.626  1.00  0.00     0.252 C 
ATOM     19  C   UNL     1      -5.765   2.967   0.133  1.00  0.00     0.143 C 
ATOM     20  N   UNL     1      -5.502   1.574   0.378  1.00  0.00    -0.355 N 
ATOM     21  H   UNL     1      -5.454   1.245   1.334  1.00  0.00     0.163 HD
ATOM     22  O   UNL     1      -4.900   1.116  -1.789  1.00  0.00    -0.269 OA
ENDBRANCH  13  18
ENDBRANCH  11  12
ENDBRANCH   1  11
BRANCH   5  23
ATOM     23  C   UNL     1       3.474   0.281  -0.028  1.00  0.00     0.033 C 
ATOM     24  C   UNL     1       4.563   0.586  -0.754  1.00  0.00     0.030 C 
BRANCH  24  25
ATOM     25  C   UNL     1       5.925   0.161  -0.412  1.00  0.00     0.063 A 
ATOM     26  C   UNL     1       6.996   0.560  -1.205  1.00  0.00     0.028 A 
ATOM     27  N   UNL     1       6.082  -0.624   0.682  1.00  0.00    -0.257 NA
ATOM     28  C   UNL     1       8.280   0.138  -0.863  1.00  0.00     0.004 A 
ATOM     29  C   UNL     1       7.338  -1.020   0.988  1.00  0.00     0.111 A 
ATOM     30  C   UNL     1       8.457  -0.669   0.254  1.00  0.00     0.020 A 
ENDBRANCH  24  25
ENDBRANCH   5  23
TORSDOF 5
