REMARK SMILES CN(C)CCOC(C)(c1ccccc1)c1ccccn1
REMARK SMILES IDX 5 1 4 2 2 3 1 4 3 5 6 6 7 7 8 8 9 9 10 10 14 11 11 12 13 13
REMARK SMILES IDX 12 14 15 15 16 16 20 17 17 18 19 19 18 20
REMARK H PARENT
REMARK Flexibility Score: inf
ROOT
ATOM      1  C   UNL     1       1.515  -0.411   0.463  1.00  0.00     0.177 C 
ENDROOT
BRANCH   1   2
ATOM      2  C   UNL     1       2.717   0.115  -0.339  1.00  0.00     0.112 C 
BRANCH   2   3
ATOM      3  N   UNL     1       3.950  -0.684  -0.182  1.00  0.00    -0.307 NA
ATOM      4  C   UNL     1       4.527  -0.532   1.154  1.00  0.00     0.105 C 
ATOM      5  C   UNL     1       4.931  -0.278  -1.192  1.00  0.00     0.105 C 
ENDBRANCH   2   3
ENDBRANCH   1   2
BRANCH   1   6
ATOM      6  O   UNL     1       0.410   0.465   0.235  1.00  0.00    -0.363 OA
BRANCH   6   7
ATOM      7  C   UNL     1      -0.913  -0.042   0.543  1.00  0.00     0.132 C 
ATOM      8  C   UNL     1      -0.906  -0.771   1.907  1.00  0.00     0.055 C 
BRANCH   7   9
ATOM      9  C   UNL     1      -1.775   1.243   0.549  1.00  0.00    -0.011 A 
ATOM     10  C   UNL     1      -1.830   2.030  -0.622  1.00  0.00     0.007 A 
ATOM     11  C   UNL     1      -2.514   1.681   1.661  1.00  0.00     0.007 A 
ATOM     12  C   UNL     1      -2.600   3.193  -0.682  1.00  0.00     0.000 A 
ATOM     13  C   UNL     1      -3.286   2.847   1.599  1.00  0.00     0.000 A 
ATOM     14  C   UNL     1      -3.330   3.600   0.429  1.00  0.00     0.000 A 
ENDBRANCH   7   9
BRANCH   7  15
ATOM     15  C   UNL     1      -1.435  -1.025  -0.543  1.00  0.00     0.076 A 
ATOM     16  C   UNL     1      -2.753  -1.493  -0.492  1.00  0.00     0.027 A 
ATOM     17  N   UNL     1      -0.589  -1.415  -1.536  1.00  0.00    -0.258 NA
ATOM     18  C   UNL     1      -3.207  -2.373  -1.472  1.00  0.00     0.004 A 
ATOM     19  C   UNL     1      -1.056  -2.268  -2.473  1.00  0.00     0.111 A 
ATOM     20  C   UNL     1      -2.343  -2.771  -2.482  1.00  0.00     0.020 A 
ENDBRANCH   7  15
ENDBRANCH   6   7
ENDBRANCH   1   6
TORSDOF 6
