REMARK SMILES Cc1nnc(C(=O)NC(C)(C)c2nc(C(=O)NCc3ccc(F)cc3)c(O)c(=O)n2C)o1
REMARK SMILES IDX 12 1 13 2 14 3 26 4 28 5 29 6 30 7 31 8 9 9 10 10 11 11 8 12
REMARK SMILES IDX 6 13 7 14 5 16 1 17 2 18 3 19 32 20 4 21 15 22 16 23 17 24
REMARK SMILES IDX 18 26 19 27 20 28 25 29 21 30 24 31 22 32 23 33 27 34
REMARK H PARENT 8 15 17 25 27 35
REMARK Flexibility Score: inf
ROOT
ATOM      1  C   UNL     1       0.873   0.493   0.869  1.00  0.00     0.137 C 
ATOM      2  N   UNL     1      -0.007  -0.340   0.408  1.00  0.00    -0.223 NA
ATOM      3  C   UNL     1      -0.966   0.072  -0.489  1.00  0.00     0.177 C 
ATOM      4  C   UNL     1      -1.061   1.341  -0.912  1.00  0.00     0.213 C 
ATOM      5  C   UNL     1      -0.060   2.299  -0.390  1.00  0.00     0.296 C 
ATOM      6  O   UNL     1      -0.172   3.471  -0.755  1.00  0.00    -0.265 OA
ATOM      7  N   UNL     1       0.917   1.811   0.456  1.00  0.00    -0.295 N 
ATOM      8  C   UNL     1       1.895   2.794   0.903  1.00  0.00     0.155 C 
ENDROOT
BRANCH   1   9
ATOM      9  C   UNL     1       1.920  -0.084   1.900  1.00  0.00     0.093 C 
ATOM     10  C   UNL     1       1.870   0.715   3.215  1.00  0.00     0.043 C 
ATOM     11  C   UNL     1       1.585  -1.555   2.238  1.00  0.00     0.043 C 
BRANCH   9  12
ATOM     12  N   UNL     1       3.221  -0.059   1.212  1.00  0.00    -0.336 N 
ATOM     13  C   UNL     1       4.441  -0.306   1.831  1.00  0.00     0.309 C 
ATOM     14  O   UNL     1       4.549  -0.345   3.053  1.00  0.00    -0.264 OA
ATOM     15  H   UNL     1       3.203  -0.234   0.212  1.00  0.00     0.165 HD
BRANCH  13  16
ATOM     16  C   UNL     1       5.544  -0.502   0.906  1.00  0.00     0.306 A 
ATOM     17  C   UNL     1       6.741  -0.761  -2.402  1.00  0.00     0.113 C 
ATOM     18  C   UNL     1       6.582  -0.704  -0.939  1.00  0.00     0.214 A 
ATOM     19  N   UNL     1       7.483  -0.834   0.009  1.00  0.00    -0.113 NA
ATOM     20  O   UNL     1       5.320  -0.486  -0.453  1.00  0.00    -0.417 OA
ATOM     21  N   UNL     1       6.810  -0.704   1.207  1.00  0.00    -0.102 NA
ENDBRANCH  13  16
ENDBRANCH   9  12
ENDBRANCH   1   9
BRANCH   3  22
ATOM     22  C   UNL     1      -1.934  -1.011  -0.955  1.00  0.00     0.274 C 
ATOM     23  O   UNL     1      -1.862  -2.154  -0.506  1.00  0.00    -0.267 OA
ATOM     24  N   UNL     1      -2.873  -0.651  -1.887  1.00  0.00    -0.346 N 
ATOM     25  H   UNL     1      -2.945   0.331  -2.138  1.00  0.00     0.164 HD
BRANCH  24  26
ATOM     26  C   UNL     1      -3.942  -1.532  -2.289  1.00  0.00     0.152 C 
BRANCH  26  27
ATOM     27  C   UNL     1      -5.209  -1.212  -1.537  1.00  0.00    -0.029 A 
ATOM     28  C   UNL     1      -5.406  -1.717  -0.241  1.00  0.00     0.008 A 
ATOM     29  C   UNL     1      -6.186  -0.376  -2.100  1.00  0.00     0.008 A 
ATOM     30  C   UNL     1      -6.565  -1.406   0.471  1.00  0.00     0.039 A 
ATOM     31  C   UNL     1      -7.345  -0.067  -1.386  1.00  0.00     0.039 A 
ATOM     32  C   UNL     1      -7.524  -0.585  -0.108  1.00  0.00     0.123 A 
ATOM     33  F   UNL     1      -8.636  -0.284   0.575  1.00  0.00    -0.207 F 
ENDBRANCH  26  27
ENDBRANCH  24  26
ENDBRANCH   3  22
BRANCH   4  34
ATOM     34  O   UNL     1      -2.010   1.840  -1.791  1.00  0.00    -0.501 OA
ATOM     35  H   UNL     1      -1.808   2.801  -1.854  1.00  0.00     0.293 HD
ENDBRANCH   4  34
TORSDOF 7
