REMARK SMILES COc1ccc2c3c1O[C@H]1[C@@H](O)C=C[C@H]4[C@@H](C2)N(C)CC[C@@]341
REMARK SMILES IDX 3 1 4 2 5 3 6 4 7 5 8 6 9 7 10 8 11 9 13 10 14 11 15 12
REMARK SMILES IDX 16 13 17 14 18 15 19 16 20 17 21 18 22 19 2 20 1 21 12 22
REMARK H PARENT 12 23
REMARK Flexibility Score: inf
ROOT
ATOM      1  C   UNL     1       2.880  -0.125   0.481  1.00  0.00     0.161 A 
ATOM      2  C   UNL     1       2.906  -1.471   0.088  1.00  0.00     0.051 A 
ATOM      3  C   UNL     1       1.725  -2.142  -0.306  1.00  0.00     0.008 A 
ATOM      4  C   UNL     1       0.495  -1.486  -0.276  1.00  0.00    -0.039 A 
ATOM      5  C   UNL     1       0.491  -0.184   0.187  1.00  0.00     0.012 A 
ATOM      6  C   UNL     1       1.646   0.500   0.501  1.00  0.00     0.165 A 
ATOM      7  O   UNL     1       1.405   1.832   0.746  1.00  0.00    -0.482 OA
ATOM      8  C   UNL     1       0.034   2.052   0.253  1.00  0.00     0.217 C 
ATOM      9  C   UNL     1       0.076   2.708  -1.159  1.00  0.00     0.178 C 
ATOM     10  C   UNL     1      -0.349   1.838  -2.308  1.00  0.00     0.004 C 
ATOM     11  C   UNL     1      -1.160   0.778  -2.167  1.00  0.00    -0.022 C 
ATOM     12  C   UNL     1      -1.690   0.374  -0.812  1.00  0.00     0.044 C 
ATOM     13  C   UNL     1      -2.043  -1.142  -0.662  1.00  0.00     0.068 C 
ATOM     14  C   UNL     1      -0.785  -2.071  -0.816  1.00  0.00     0.055 C 
ATOM     15  N   UNL     1      -2.734  -1.419   0.629  1.00  0.00    -0.302 NA
ATOM     16  C   UNL     1      -4.111  -0.927   0.649  1.00  0.00     0.105 C 
ATOM     17  C   UNL     1      -1.976  -0.955   1.801  1.00  0.00     0.085 C 
ATOM     18  C   UNL     1      -1.393   0.462   1.678  1.00  0.00     0.032 C 
ATOM     19  C   UNL     1      -0.706   0.700   0.318  1.00  0.00     0.048 C 
ENDROOT
BRANCH   1  20
ATOM     20  O   UNL     1       3.958   0.640   0.819  1.00  0.00    -0.493 OA
ATOM     21  C   UNL     1       5.227   0.001   0.809  1.00  0.00     0.278 C 
ENDBRANCH   1  20
BRANCH   9  22
ATOM     22  O   UNL     1       1.364   3.239  -1.465  1.00  0.00    -0.385 OA
ATOM     23  H   UNL     1       1.991   2.800  -0.856  1.00  0.00     0.211 HD
ENDBRANCH   9  22
TORSDOF 2
