REMARK SMILES Cc1nnc2n1-c1ccc(Cl)cc1C(c1ccccc1Cl)=NC2
REMARK SMILES IDX 1 1 2 2 3 3 4 4 5 5 6 6 7 7 8 8 9 9 10 10 11 11 12 12 13 13
REMARK SMILES IDX 14 14 22 15 23 16 15 17 16 18 20 19 17 20 19 21 21 22 18 23
REMARK H PARENT
REMARK Flexibility Score: inf
ROOT
ATOM      1  C   UNL     1      -3.910   0.892   1.231  1.00  0.00     0.090 C 
ATOM      2  C   UNL     1      -3.279  -0.435   1.040  1.00  0.00     0.134 A 
ATOM      3  N   UNL     1      -3.660  -1.533   1.661  1.00  0.00    -0.135 NA
ATOM      4  N   UNL     1      -2.764  -2.524   1.372  1.00  0.00    -0.133 NA
ATOM      5  C   UNL     1      -1.848  -2.020   0.574  1.00  0.00     0.159 A 
ATOM      6  N   UNL     1      -2.149  -0.706   0.285  1.00  0.00    -0.281 N 
ATOM      7  C   UNL     1      -1.461   0.107  -0.653  1.00  0.00     0.058 A 
ATOM      8  C   UNL     1      -2.188   1.028  -1.426  1.00  0.00     0.029 A 
ATOM      9  C   UNL     1      -1.546   1.795  -2.401  1.00  0.00     0.023 A 
ATOM     10  C   UNL     1      -0.182   1.641  -2.618  1.00  0.00     0.041 A 
ATOM     11  Cl  UNL     1       0.602   2.577  -3.829  1.00  0.00    -0.084 Cl
ATOM     12  C   UNL     1       0.554   0.734  -1.861  1.00  0.00     0.033 A 
ATOM     13  C   UNL     1      -0.074  -0.033  -0.864  1.00  0.00     0.026 A 
ATOM     14  C   UNL     1       0.808  -0.891  -0.009  1.00  0.00     0.076 C 
ATOM     15  N   UNL     1       0.552  -2.104   0.349  1.00  0.00    -0.276 NA
ATOM     16  C   UNL     1      -0.705  -2.731  -0.038  1.00  0.00     0.220 C 
ENDROOT
BRANCH  14  17
ATOM     17  C   UNL     1       2.108  -0.324   0.459  1.00  0.00     0.019 A 
ATOM     18  C   UNL     1       3.267  -1.061   0.171  1.00  0.00     0.012 A 
ATOM     19  C   UNL     1       2.207   0.877   1.175  1.00  0.00     0.050 A 
ATOM     20  C   UNL     1       4.518  -0.583   0.563  1.00  0.00     0.001 A 
ATOM     21  C   UNL     1       3.465   1.349   1.562  1.00  0.00     0.021 A 
ATOM     22  Cl  UNL     1       0.828   1.802   1.655  1.00  0.00    -0.084 Cl
ATOM     23  C   UNL     1       4.617   0.624   1.252  1.00  0.00     0.002 A 
ENDBRANCH  14  17
TORSDOF 1
