REMARK SMILES CC(CN(C)C)CN1c2ccccc2CCc2ccccc21
REMARK SMILES IDX 7 1 2 2 1 3 3 4 4 5 5 6 6 7 8 8 9 9 10 10 14 11 11 12 13 13
REMARK SMILES IDX 12 14 15 15 22 17 17 18 21 19 18 20 20 21 19 22 16 23
REMARK H PARENT
REMARK Flexibility Score: 90.00
ROOT
ATOM      1  C   UNL     1       0.685  -0.400   0.605  1.00  0.00     0.127 C 
ENDROOT
BRANCH   1   2
ATOM      2  C   UNL     1       1.649  -0.276  -0.607  1.00  0.00     0.020 C 
ATOM      3  C   UNL     1       1.297  -1.227  -1.758  1.00  0.00     0.011 C 
BRANCH   2   4
ATOM      4  C   UNL     1       3.108  -0.547  -0.168  1.00  0.00     0.089 C 
BRANCH   4   5
ATOM      5  N   UNL     1       3.605   0.385   0.861  1.00  0.00    -0.309 NA
ATOM      6  C   UNL     1       4.810  -0.161   1.495  1.00  0.00     0.104 C 
ATOM      7  C   UNL     1       3.913   1.701   0.291  1.00  0.00     0.104 C 
ENDBRANCH   4   5
ENDBRANCH   2   4
ENDBRANCH   1   2
BRANCH   1   8
ATOM      8  N   UNL     1      -0.756  -0.175   0.247  1.00  0.00    -0.341 N 
BRANCH   8   9
ATOM      9  C   UNL     1      -1.084   1.195  -0.067  1.00  0.00     0.044 A 
ATOM     10  C   UNL     1      -0.203   2.263   0.244  1.00  0.00     0.026 A 
ATOM     11  C   UNL     1      -2.273   1.587  -0.721  1.00  0.00    -0.024 A 
ATOM     12  C   UNL     1      -0.433   3.597  -0.122  1.00  0.00     0.002 A 
ATOM     13  C   UNL     1      -2.492   2.933  -1.110  1.00  0.00     0.006 A 
ATOM     14  C   UNL     1      -1.576   3.931  -0.819  1.00  0.00     0.000 A 
BRANCH  11  15
ATOM     15  C   UNL     1      -3.401   0.635  -0.990  1.00  0.00     0.042 CG0
ATOM     16  G   UNL     1      -3.796  -0.032   0.315  1.00  0.00     0.000 G0
ENDBRANCH  11  15
ENDBRANCH   8   9
BRANCH   8  17
ATOM     17  C   UNL     1      -1.595  -1.341   0.364  1.00  0.00     0.044 A 
ATOM     18  C   UNL     1      -3.002  -1.296   0.482  1.00  0.00    -0.024 A 
ATOM     19  C   UNL     1      -1.048  -2.651   0.372  1.00  0.00     0.026 A 
ATOM     20  C   UNL     1      -3.762  -2.471   0.714  1.00  0.00     0.006 A 
ATOM     21  C   UNL     1      -1.805  -3.814   0.576  1.00  0.00     0.002 A 
ATOM     22  C   UNL     1      -3.167  -3.722   0.771  1.00  0.00     0.000 A 
BRANCH  18  23
ATOM     23  C   UNL     1      -3.796  -0.032   0.315  1.00  0.00     0.042 CG0
ATOM     24  G   UNL     1      -3.401   0.635  -0.990  1.00  0.00     0.000 G0
ENDBRANCH  18  23
ENDBRANCH   8  17
ENDBRANCH   1   8
TORSDOF 4
