REMARK SMILES COc1cc2c(-c3cnn4cc(N5CCC(N6CCN(C)CC6)CC5)cnc34)ccnc2cc1F
REMARK SMILES IDX 7 1 28 2 27 3 26 4 12 5 11 6 10 7 9 8 8 9 6 10 3 11 4 12
REMARK SMILES IDX 34 13 5 14 33 15 35 16 32 17 29 18 31 19 30 20 2 21 1 22
REMARK SMILES IDX 13 23 14 24 25 25 15 26 24 27 16 28 17 29 18 30 23 31 19 32
REMARK SMILES IDX 22 33 20 34 21 35
REMARK H PARENT
REMARK Flexibility Score: inf
ROOT
ATOM      1  C   UNL     1      -4.158  -0.799  -1.197  1.00  0.00     0.047 A 
ATOM      2  C   UNL     1      -2.911  -0.653  -0.620  1.00  0.00     0.162 A 
ATOM      3  N   UNL     1      -2.323  -1.238   0.466  1.00  0.00    -0.234 NA
ATOM      4  C   UNL     1      -1.113  -0.841   0.733  1.00  0.00     0.141 C 
ATOM      5  C   UNL     1      -0.281   0.184  -0.020  1.00  0.00     0.074 C 
ATOM      6  C   UNL     1      -0.947   0.698  -1.069  1.00  0.00     0.142 C 
ATOM      7  N   UNL     1      -2.241   0.303  -1.387  1.00  0.00    -0.220 N 
ATOM      8  N   UNL     1      -3.006   0.752  -2.417  1.00  0.00    -0.174 NA
ATOM      9  C   UNL     1      -4.146   0.071  -2.303  1.00  0.00     0.146 A 
ENDROOT
BRANCH   1  10
ATOM     10  C   UNL     1      -5.193  -1.699  -0.719  1.00  0.00    -0.002 A 
ATOM     11  C   UNL     1      -8.077   0.532   0.286  1.00  0.00     0.155 A 
ATOM     12  C   UNL     1      -6.815   0.144  -0.163  1.00  0.00     0.060 A 
ATOM     13  C   UNL     1      -8.981  -0.465   0.641  1.00  0.00     0.167 A 
ATOM     14  C   UNL     1      -6.454  -1.229  -0.265  1.00  0.00     0.012 A 
ATOM     15  C   UNL     1      -8.643  -1.811   0.562  1.00  0.00     0.072 A 
ATOM     16  F   UNL     1     -10.208  -0.137   1.077  1.00  0.00    -0.203 F 
ATOM     17  C   UNL     1      -7.395  -2.211   0.121  1.00  0.00     0.074 A 
ATOM     18  C   UNL     1      -4.928  -3.070  -0.737  1.00  0.00     0.029 A 
ATOM     19  N   UNL     1      -7.139  -3.527   0.085  1.00  0.00    -0.256 NA
ATOM     20  C   UNL     1      -5.921  -3.932  -0.328  1.00  0.00     0.112 A 
BRANCH  11  21
ATOM     21  O   UNL     1      -8.520   1.818   0.416  1.00  0.00    -0.494 OA
ATOM     22  C   UNL     1      -7.609   2.860   0.090  1.00  0.00     0.278 C 
ENDBRANCH  11  21
ENDBRANCH   1  10
BRANCH   5  23
ATOM     23  N   UNL     1       1.021   0.491   0.399  1.00  0.00    -0.369 N 
ATOM     24  C   UNL     1       1.750   1.681  -0.064  1.00  0.00     0.118 C 
ATOM     25  C   UNL     1       1.734  -0.302   1.419  1.00  0.00     0.118 C 
ATOM     26  C   UNL     1       3.072   1.280  -0.714  1.00  0.00     0.040 C 
ATOM     27  C   UNL     1       3.231   0.013   1.475  1.00  0.00     0.040 C 
ATOM     28  C   UNL     1       3.791   0.149   0.052  1.00  0.00     0.060 C 
BRANCH  28  29
ATOM     29  N   UNL     1       5.250   0.309  -0.048  1.00  0.00    -0.298 NA
ATOM     30  C   UNL     1       5.980  -0.971   0.027  1.00  0.00     0.100 C 
ATOM     31  C   UNL     1       5.856   1.305   0.841  1.00  0.00     0.100 C 
ATOM     32  C   UNL     1       7.491  -0.850   0.370  1.00  0.00     0.099 C 
ATOM     33  C   UNL     1       7.353   1.564   0.508  1.00  0.00     0.099 C 
ATOM     34  N   UNL     1       8.069   0.418  -0.086  1.00  0.00    -0.304 NA
ATOM     35  C   UNL     1       9.503   0.492   0.161  1.00  0.00     0.105 C 
ENDBRANCH  28  29
ENDBRANCH   5  23
TORSDOF 4
