REMARK SMILES C=CC(=O)N(C)CCOc1c(N)ncnc1-c1cc(F)cc(NC(=O)c2ccc(C3CC3)cc2F)c1C
REMARK SMILES IDX 9 1 8 2 7 3 5 4 6 5 3 6 4 7 2 8 1 9 10 10 11 11 16 12 13 13
REMARK SMILES IDX 15 14 14 15 12 16 17 19 36 20 18 21 37 22 22 23 19 24 21 25
REMARK SMILES IDX 20 26 23 27 24 28 25 30 26 31 34 32 27 33 35 34 33 35 28 36
REMARK SMILES IDX 29 37 30 38 31 39 32 40
REMARK H PARENT 12 17 12 18 23 29
REMARK Flexibility Score: inf
ROOT
ATOM      1  O   UNL     1      -3.661  -0.649  -0.848  1.00  0.00    -0.486 OA
ENDROOT
BRANCH   1   2
ATOM      2  C   UNL     1      -3.505   0.325   0.196  1.00  0.00     0.251 C 
BRANCH   2   3
ATOM      3  C   UNL     1      -4.516   1.461  -0.000  1.00  0.00     0.161 C 
BRANCH   3   4
ATOM      4  N   UNL     1      -5.868   1.151   0.494  1.00  0.00    -0.339 N 
ATOM      5  C   UNL     1      -6.089   1.335   1.932  1.00  0.00     0.147 C 
BRANCH   4   6
ATOM      6  C   UNL     1      -6.768   0.544  -0.377  1.00  0.00     0.245 C 
ATOM      7  O   UNL     1      -6.474   0.123  -1.499  1.00  0.00    -0.270 OA
BRANCH   6   8
ATOM      8  C   UNL     1      -8.170   0.366   0.079  1.00  0.00     0.063 C 
ATOM      9  C   UNL     1      -8.951   1.416   0.377  1.00  0.00     0.014 C 
ENDBRANCH   6   8
ENDBRANCH   4   6
ENDBRANCH   3   4
ENDBRANCH   2   3
ENDBRANCH   1   2
BRANCH   1  10
ATOM     10  C   UNL     1      -3.219  -1.871  -0.424  1.00  0.00     0.187 A 
ATOM     11  C   UNL     1      -4.099  -2.774   0.160  1.00  0.00     0.170 A 
ATOM     12  C   UNL     1      -1.915  -2.304  -0.621  1.00  0.00     0.118 A 
ATOM     13  N   UNL     1      -3.714  -3.981   0.593  1.00  0.00    -0.216 NA
ATOM     14  N   UNL     1      -1.495  -3.519  -0.198  1.00  0.00    -0.232 NA
ATOM     15  C   UNL     1      -2.423  -4.292   0.390  1.00  0.00     0.225 A 
BRANCH  11  16
ATOM     16  N   UNL     1      -5.439  -2.426   0.379  1.00  0.00    -0.380 N 
ATOM     17  H   UNL     1      -5.825  -2.005  -0.467  1.00  0.00     0.158 HD
ATOM     18  H   UNL     1      -5.938  -3.255   0.686  1.00  0.00     0.158 HD
ENDBRANCH  11  16
BRANCH  12  19
ATOM     19  C   UNL     1      -0.901  -1.504  -1.336  1.00  0.00     0.012 A 
ATOM     20  C   UNL     1       0.314  -1.062  -0.737  1.00  0.00    -0.018 A 
ATOM     21  C   UNL     1      -1.145  -1.180  -2.680  1.00  0.00     0.050 A 
ATOM     22  C   UNL     1       0.597  -1.376   0.716  1.00  0.00     0.047 C 
ATOM     23  C   UNL     1       1.268  -0.345  -1.516  1.00  0.00     0.048 A 
ATOM     24  C   UNL     1      -0.217  -0.461  -3.415  1.00  0.00     0.125 A 
ATOM     25  C   UNL     1       0.976  -0.045  -2.850  1.00  0.00     0.065 A 
ATOM     26  F   UNL     1      -0.474  -0.182  -4.701  1.00  0.00    -0.207 F 
BRANCH  23  27
ATOM     27  N   UNL     1       2.509   0.015  -0.932  1.00  0.00    -0.322 N 
ATOM     28  C   UNL     1       3.513   0.796  -1.479  1.00  0.00     0.258 C 
ATOM     29  H   UNL     1       2.694  -0.367  -0.013  1.00  0.00     0.170 HD
ATOM     30  O   UNL     1       3.453   1.398  -2.547  1.00  0.00    -0.269 OA
BRANCH  28  31
ATOM     31  C   UNL     1       4.775   0.917  -0.689  1.00  0.00     0.075 A 
ATOM     32  C   UNL     1       4.953   0.353   0.571  1.00  0.00     0.136 A 
ATOM     33  C   UNL     1       5.844   1.628  -1.247  1.00  0.00     0.017 A 
ATOM     34  F   UNL     1       3.970  -0.347   1.159  1.00  0.00    -0.206 F 
ATOM     35  C   UNL     1       6.162   0.490   1.263  1.00  0.00     0.044 A 
ATOM     36  C   UNL     1       7.058   1.757  -0.558  1.00  0.00     0.005 A 
ATOM     37  C   UNL     1       7.253   1.191   0.714  1.00  0.00    -0.042 A 
BRANCH  37  38
ATOM     38  C   UNL     1       8.560   1.282   1.481  1.00  0.00     0.019 C 
ATOM     39  C   UNL     1       9.869   1.043   0.761  1.00  0.00     0.009 C 
ATOM     40  C   UNL     1       9.546   2.409   1.285  1.00  0.00     0.009 C 
ENDBRANCH  37  38
ENDBRANCH  28  31
ENDBRANCH  23  27
ENDBRANCH  12  19
ENDBRANCH   1  10
TORSDOF 11
