REMARK SMILES CN1CCc2c(c3ccccc3n2Cc2ccccc2)C1
REMARK SMILES IDX 14 1 13 2 1 3 2 4 3 5 21 6 4 7 6 8 5 9 7 10 8 11 12 12 9 13
REMARK SMILES IDX 11 14 10 15 15 16 16 17 20 18 17 19 19 20 18 21
REMARK H PARENT
REMARK Flexibility Score: inf
ROOT
ATOM      1  C   UNL     1      -1.520   0.996   1.282  1.00  0.00     0.158 C 
ENDROOT
BRANCH   1   2
ATOM      2  N   UNL     1      -0.339   0.983   0.421  1.00  0.00    -0.340 N 
ATOM      3  C   UNL     1       4.033  -2.445  -0.092  1.00  0.00     0.105 C 
ATOM      4  N   UNL     1       2.749  -1.751  -0.061  1.00  0.00    -0.302 NA
ATOM      5  C   UNL     1       2.218  -1.689   1.321  1.00  0.00     0.091 C 
ATOM      6  C   UNL     1       2.891  -0.396  -0.652  1.00  0.00     0.122 C 
ATOM      7  C   UNL     1       0.776  -1.121   1.379  1.00  0.00     0.070 C 
ATOM      8  C   UNL     1       1.632   0.390  -0.458  1.00  0.00    -0.005 A 
ATOM      9  C   UNL     1       0.682   0.072   0.491  1.00  0.00     0.025 A 
ATOM     10  C   UNL     1       1.182   1.563  -1.125  1.00  0.00     0.004 A 
ATOM     11  C   UNL     1       1.714   2.359  -2.161  1.00  0.00     0.010 A 
ATOM     12  C   UNL     1      -0.050   1.921  -0.560  1.00  0.00     0.049 A 
ATOM     13  C   UNL     1       1.009   3.480  -2.607  1.00  0.00     0.001 A 
ATOM     14  C   UNL     1      -0.764   3.046  -1.008  1.00  0.00     0.027 A 
ATOM     15  C   UNL     1      -0.214   3.817  -2.037  1.00  0.00     0.002 A 
ENDBRANCH   1   2
BRANCH   1  16
ATOM     16  C   UNL     1      -2.521  -0.079   0.933  1.00  0.00    -0.028 A 
ATOM     17  C   UNL     1      -2.985  -0.252  -0.381  1.00  0.00     0.005 A 
ATOM     18  C   UNL     1      -3.048  -0.899   1.944  1.00  0.00     0.005 A 
ATOM     19  C   UNL     1      -3.931  -1.234  -0.678  1.00  0.00     0.000 A 
ATOM     20  C   UNL     1      -3.996  -1.879   1.644  1.00  0.00     0.000 A 
ATOM     21  C   UNL     1      -4.436  -2.047   0.334  1.00  0.00     0.000 A 
ENDBRANCH   1  16
TORSDOF 2
