REMARK SMILES C=C1CC[C@@]2(O)[C@H]3Cc4ccc(O)c5c4[C@@]2(CCN3CC2CC2)[C@H]1O5
REMARK SMILES IDX 1 1 2 2 3 3 4 4 5 5 7 6 8 7 9 8 10 9 11 10 12 11 14 12 15 13
REMARK SMILES IDX 16 14 17 15 18 16 19 17 24 18 25 19 6 20 13 22 20 24 21 25
REMARK SMILES IDX 22 26 23 27
REMARK H PARENT 6 21 13 23
REMARK Flexibility Score: inf
ROOT
ATOM      1  C   UNL     1      -4.578   1.184   0.189  1.00  0.00     0.012 C 
ATOM      2  C   UNL     1      -3.284   1.482  -0.032  1.00  0.00    -0.036 C 
ATOM      3  C   UNL     1      -2.517   2.349   0.934  1.00  0.00     0.037 C 
ATOM      4  C   UNL     1      -1.223   1.662   1.389  1.00  0.00     0.042 C 
ATOM      5  C   UNL     1      -0.308   1.380   0.184  1.00  0.00     0.095 C 
ATOM      6  C   UNL     1       0.985   0.542   0.530  1.00  0.00     0.094 C 
ATOM      7  C   UNL     1       0.628  -0.863   1.126  1.00  0.00     0.058 C 
ATOM      8  C   UNL     1      -0.508  -1.546   0.412  1.00  0.00    -0.038 A 
ATOM      9  C   UNL     1      -0.919  -2.856   0.660  1.00  0.00     0.008 A 
ATOM     10  C   UNL     1      -2.076  -3.373   0.035  1.00  0.00     0.050 A 
ATOM     11  C   UNL     1      -2.854  -2.570  -0.808  1.00  0.00     0.158 A 
ATOM     12  C   UNL     1      -2.446  -1.275  -1.032  1.00  0.00     0.166 A 
ATOM     13  C   UNL     1      -1.272  -0.807  -0.473  1.00  0.00     0.015 A 
ATOM     14  C   UNL     1      -1.016   0.596  -0.924  1.00  0.00     0.072 C 
ATOM     15  C   UNL     1      -0.134   0.539  -2.197  1.00  0.00     0.035 C 
ATOM     16  C   UNL     1       1.356   0.810  -1.925  1.00  0.00     0.086 C 
ATOM     17  N   UNL     1       1.869   0.293  -0.649  1.00  0.00    -0.297 NA
ATOM     18  C   UNL     1      -2.488   0.949  -1.233  1.00  0.00     0.213 C 
ATOM     19  O   UNL     1      -3.107  -0.290  -1.732  1.00  0.00    -0.481 OA
ENDROOT
BRANCH   5  20
ATOM     20  O   UNL     1       0.069   2.686  -0.308  1.00  0.00    -0.387 OA
ATOM     21  H   UNL     1       0.802   3.009   0.245  1.00  0.00     0.211 HD
ENDBRANCH   5  20
BRANCH  11  22
ATOM     22  O   UNL     1      -4.001  -3.033  -1.375  1.00  0.00    -0.504 OA
ATOM     23  H   UNL     1      -4.121  -3.961  -1.119  1.00  0.00     0.293 HD
ENDBRANCH  11  22
BRANCH  17  24
ATOM     24  C   UNL     1       3.256   0.731  -0.445  1.00  0.00     0.088 C 
BRANCH  24  25
ATOM     25  C   UNL     1       3.956  -0.131   0.567  1.00  0.00     0.003 C 
ATOM     26  C   UNL     1       5.414  -0.479   0.393  1.00  0.00     0.005 C 
ATOM     27  C   UNL     1       4.365  -1.541   0.222  1.00  0.00     0.005 C 
ENDBRANCH  24  25
ENDBRANCH  17  24
TORSDOF 4
