REMARK SMILES O=C(Nc1nc2cccc(-c3ccc(CN4CCS(=O)(=O)CC4)cc3)n2n1)C1CC1
REMARK SMILES IDX 4 1 5 2 6 3 7 4 8 5 9 6 10 7 26 8 27 9 3 10 1 11 2 12 28 14
REMARK SMILES IDX 29 15 30 16 11 17 12 18 25 19 13 20 24 21 14 22 15 23 16 24
REMARK SMILES IDX 17 25 23 26 18 27 22 28 19 29 20 30 21 31
REMARK H PARENT 3 13
REMARK Flexibility Score: inf
ROOT
ATOM      1  C   UNL     1      -4.132  -0.341  -0.748  1.00  0.00     0.249 A 
ATOM      2  N   UNL     1      -4.447  -0.238  -2.063  1.00  0.00    -0.192 NA
ATOM      3  C   UNL     1      -3.319   0.132  -2.618  1.00  0.00     0.158 A 
ATOM      4  C   UNL     1      -2.982   0.415  -3.968  1.00  0.00     0.049 C 
ATOM      5  C   UNL     1      -1.719   0.757  -4.278  1.00  0.00     0.006 C 
ATOM      6  C   UNL     1      -0.684   0.838  -3.262  1.00  0.00     0.029 C 
ATOM      7  C   UNL     1      -0.985   0.590  -1.967  1.00  0.00     0.074 C 
ATOM      8  N   UNL     1      -2.316   0.237  -1.648  1.00  0.00    -0.211 N 
ATOM      9  N   UNL     1      -2.868  -0.057  -0.437  1.00  0.00    -0.127 NA
ENDROOT
BRANCH   1  10
ATOM     10  N   UNL     1      -5.011  -0.698   0.230  1.00  0.00    -0.293 N 
ATOM     11  O   UNL     1      -6.925  -1.168  -1.024  1.00  0.00    -0.274 OA
ATOM     12  C   UNL     1      -6.313  -1.062   0.028  1.00  0.00     0.229 C 
ATOM     13  H   UNL     1      -4.622  -0.683   1.158  1.00  0.00     0.173 HD
BRANCH  12  14
ATOM     14  C   UNL     1      -7.008  -1.373   1.313  1.00  0.00     0.079 C 
ATOM     15  C   UNL     1      -7.389  -0.240   2.246  1.00  0.00     0.014 C 
ATOM     16  C   UNL     1      -8.459  -0.994   1.507  1.00  0.00     0.014 C 
ENDBRANCH  12  14
ENDBRANCH   1  10
BRANCH   7  17
ATOM     17  C   UNL     1       0.079   0.662  -0.942  1.00  0.00     0.000 A 
ATOM     18  C   UNL     1       0.908   1.790  -0.841  1.00  0.00     0.011 A 
ATOM     19  C   UNL     1       0.284  -0.398  -0.049  1.00  0.00     0.011 A 
ATOM     20  C   UNL     1       1.921   1.851   0.123  1.00  0.00     0.006 A 
ATOM     21  C   UNL     1       1.292  -0.336   0.918  1.00  0.00     0.006 A 
ATOM     22  C   UNL     1       2.129   0.785   1.010  1.00  0.00    -0.034 A 
BRANCH  22  23
ATOM     23  C   UNL     1       3.224   0.844   2.054  1.00  0.00     0.120 C 
BRANCH  23  24
ATOM     24  N   UNL     1       4.556   0.348   1.651  1.00  0.00    -0.297 NA
ATOM     25  C   UNL     1       5.171   1.171   0.595  1.00  0.00     0.101 C 
ATOM     26  C   UNL     1       4.545  -1.084   1.303  1.00  0.00     0.101 C 
ATOM     27  C   UNL     1       6.654   0.884   0.456  1.00  0.00     0.152 C 
ATOM     28  C   UNL     1       5.947  -1.662   1.250  1.00  0.00     0.152 C 
ATOM     29  S   UNL     1       6.915  -0.817   0.027  1.00  0.00     0.152 S 
ATOM     30  O   UNL     1       8.311  -1.130   0.270  1.00  0.00    -0.229 OA
ATOM     31  O   UNL     1       6.327  -1.058  -1.280  1.00  0.00    -0.229 OA
ENDBRANCH  23  24
ENDBRANCH  22  23
ENDBRANCH   7  17
TORSDOF 5
