REMARK SMILES C[N+]1(C)[C@@H]2C[C@@H](OC(=O)[C@H](CO)c3ccccc3)C[C@H]1[C@@H]1O[C@@H]12
REMARK SMILES IDX 8 1 9 2 7 3 6 4 1 5 2 6 3 7 4 8 20 9 5 10 23 11 19 12 21 13
REMARK SMILES IDX 22 14 10 15 11 16 12 17 13 19 14 20 18 21 15 22 17 23 16 24
REMARK H PARENT 12 18
REMARK Flexibility Score: inf
ROOT
ATOM      1  C   UNL     1       1.463   1.444   1.394  1.00  0.00     0.316 C 
ATOM      2  O   UNL     1       1.127   2.188   2.308  1.00  0.00    -0.251 OA
ENDROOT
BRANCH   1   3
ATOM      3  O   UNL     1       0.629   1.057   0.384  1.00  0.00    -0.461 OA
BRANCH   3   4
ATOM      4  C   UNL     1      -0.715   1.584   0.401  1.00  0.00     0.188 C 
ATOM      5  C   UNL     1      -3.942   1.325  -0.354  1.00  0.00     0.334 C 
ATOM      6  N   UNL     1      -3.039   0.156  -0.730  1.00  0.00    -0.319 N 
ATOM      7  C   UNL     1      -3.991  -0.856  -1.396  1.00  0.00     0.334 C 
ATOM      8  C   UNL     1      -2.233  -0.503   0.432  1.00  0.00     0.221 C 
ATOM      9  C   UNL     1      -1.822   0.483  -1.652  1.00  0.00     0.221 C 
ATOM     10  C   UNL     1      -1.593   0.635   1.257  1.00  0.00     0.113 C 
ATOM     11  C   UNL     1      -1.109  -1.310  -0.204  1.00  0.00     0.212 C 
ATOM     12  C   UNL     1      -1.135   1.742  -1.083  1.00  0.00     0.113 C 
ATOM     13  C   UNL     1      -0.845  -0.679  -1.533  1.00  0.00     0.212 C 
ATOM     14  O   UNL     1      -1.367  -2.005  -1.428  1.00  0.00    -0.357 OA
ENDBRANCH   3   4
ENDBRANCH   1   3
BRANCH   1  15
ATOM     15  C   UNL     1       2.849   0.844   1.253  1.00  0.00     0.155 C 
BRANCH  15  16
ATOM     16  C   UNL     1       3.711   1.755   0.368  1.00  0.00     0.176 C 
BRANCH  16  17
ATOM     17  O   UNL     1       3.140   1.981  -0.921  1.00  0.00    -0.395 OA
ATOM     18  H   UNL     1       3.774   2.540  -1.410  1.00  0.00     0.210 HD
ENDBRANCH  16  17
ENDBRANCH  15  16
BRANCH  15  19
ATOM     19  C   UNL     1       2.805  -0.639   0.900  1.00  0.00    -0.032 A 
ATOM     20  C   UNL     1       2.962  -1.120  -0.407  1.00  0.00     0.005 A 
ATOM     21  C   UNL     1       2.557  -1.570   1.927  1.00  0.00     0.005 A 
ATOM     22  C   UNL     1       2.880  -2.488  -0.680  1.00  0.00     0.000 A 
ATOM     23  C   UNL     1       2.478  -2.936   1.653  1.00  0.00     0.000 A 
ATOM     24  C   UNL     1       2.639  -3.395   0.349  1.00  0.00     0.000 A 
ENDBRANCH  15  19
ENDBRANCH   1  15
TORSDOF 6
