REMARK SMILES COc1ccc2[nH]cc(CCNC(C)=O)c2c1
REMARK SMILES IDX 10 1 9 2 3 3 4 4 17 5 5 6 16 7 6 8 7 9 8 10 2 12 1 13 11 14
REMARK SMILES IDX 12 15 13 16 14 18 15 19
REMARK H PARENT 7 11 12 17
REMARK Flexibility Score: inf
ROOT
ATOM      1  C   UNL     1      -1.592  -1.334  -1.722  1.00  0.00     0.059 C 
ENDROOT
BRANCH   1   2
ATOM      2  C   UNL     1      -0.343  -1.735  -0.993  1.00  0.00    -0.021 A 
ATOM      3  C   UNL     1       2.192   1.043  -0.247  1.00  0.00     0.119 A 
ATOM      4  C   UNL     1       3.104   0.226   0.420  1.00  0.00     0.048 A 
ATOM      5  C   UNL     1       1.011   0.494  -0.765  1.00  0.00     0.057 A 
ATOM      6  C   UNL     1       2.865  -1.145   0.583  1.00  0.00     0.030 A 
ATOM      7  C   UNL     1       0.742  -0.881  -0.611  1.00  0.00     0.006 A 
ATOM      8  C   UNL     1       1.678  -1.667   0.059  1.00  0.00     0.046 A 
ATOM      9  N   UNL     1       1.192  -2.954   0.070  1.00  0.00    -0.361 N 
ATOM     10  C   UNL     1      -0.023  -3.006  -0.557  1.00  0.00     0.087 A 
ATOM     11  H   UNL     1       1.669  -3.743   0.485  1.00  0.00     0.166 HD
BRANCH   3  12
ATOM     12  O   UNL     1       2.326   2.390  -0.457  1.00  0.00    -0.497 OA
ATOM     13  C   UNL     1       3.527   2.998   0.002  1.00  0.00     0.278 C 
ENDBRANCH   3  12
ENDBRANCH   1   2
BRANCH   1  14
ATOM     14  C   UNL     1      -2.759  -1.016  -0.784  1.00  0.00     0.120 C 
BRANCH  14  15
ATOM     15  N   UNL     1      -2.514   0.151   0.047  1.00  0.00    -0.356 N 
ATOM     16  C   UNL     1      -3.553   0.804   0.669  1.00  0.00     0.216 C 
ATOM     17  H   UNL     1      -1.600   0.218   0.480  1.00  0.00     0.163 HD
ATOM     18  C   UNL     1      -3.113   1.883   1.622  1.00  0.00     0.114 C 
ATOM     19  O   UNL     1      -4.736   0.539   0.485  1.00  0.00    -0.275 OA
ENDBRANCH  14  15
ENDBRANCH   1  14
TORSDOF 4
