REMARK SMILES Cc1cc2ncc(C(=O)NCC(C)(C)NCC(=O)N3CCC[C@H]3C#N)cn2n1
REMARK SMILES IDX 15 1 12 3 13 4 14 5 11 6 10 7 8 8 9 9 7 11 1 12 2 13 3 14
REMARK SMILES IDX 28 15 4 16 27 17 5 18 26 19 6 20 16 21 17 22 18 23 19 24
REMARK SMILES IDX 20 25 23 26 21 27 22 28 24 29 25 30
REMARK H PARENT 15 2 10 10
REMARK Flexibility Score: inf
ROOT
ATOM      1  N   UNL     1      -2.317  -0.399  -0.859  1.00  0.00    -0.302 NA
ATOM      2  H   UNL     1      -2.759  -0.427  -1.782  1.00  0.00     0.123 HD
ENDROOT
BRANCH   1   3
ATOM      3  C   UNL     1      -0.846  -0.331  -1.021  1.00  0.00     0.030 C 
ATOM      4  C   UNL     1      -0.354  -1.482  -1.920  1.00  0.00     0.030 C 
ATOM      5  C   UNL     1      -0.584   1.001  -1.753  1.00  0.00     0.030 C 
BRANCH   3   6
ATOM      6  C   UNL     1      -0.097  -0.347   0.350  1.00  0.00     0.138 C 
BRANCH   6   7
ATOM      7  N   UNL     1       1.348  -0.200   0.254  1.00  0.00    -0.350 N 
ATOM      8  C   UNL     1       1.975   1.001   0.486  1.00  0.00     0.254 C 
ATOM      9  O   UNL     1       1.382   2.031   0.783  1.00  0.00    -0.269 OA
ATOM     10  H   UNL     1       1.873  -0.993  -0.087  1.00  0.00     0.163 HD
BRANCH   8  11
ATOM     11  C   UNL     1       3.448   1.012   0.311  1.00  0.00     0.076 C 
ATOM     12  C   UNL     1       8.974  -1.097   0.149  1.00  0.00     0.069 C 
ATOM     13  C   UNL     1       7.713  -0.317   0.137  1.00  0.00     0.062 A 
ATOM     14  C   UNL     1       7.552   1.064  -0.099  1.00  0.00     0.074 A 
ATOM     15  N   UNL     1       6.544  -0.926   0.368  1.00  0.00    -0.172 NA
ATOM     16  C   UNL     1       6.201   1.296   0.001  1.00  0.00     0.155 A 
ATOM     17  N   UNL     1       5.619   0.060   0.285  1.00  0.00    -0.222 N 
ATOM     18  N   UNL     1       5.458   2.437  -0.121  1.00  0.00    -0.236 NA
ATOM     19  C   UNL     1       4.245  -0.062   0.444  1.00  0.00     0.130 C 
ATOM     20  C   UNL     1       4.174   2.292   0.035  1.00  0.00     0.129 C 
ENDBRANCH   8  11
ENDBRANCH   6   7
ENDBRANCH   3   6
ENDBRANCH   1   3
BRANCH   1  21
ATOM     21  C   UNL     1      -2.832  -1.521  -0.063  1.00  0.00     0.182 C 
BRANCH  21  22
ATOM     22  C   UNL     1      -4.366  -1.514  -0.110  1.00  0.00     0.237 C 
ATOM     23  O   UNL     1      -4.979  -2.334  -0.797  1.00  0.00    -0.273 OA
BRANCH  22  24
ATOM     24  N   UNL     1      -5.026  -0.559   0.629  1.00  0.00    -0.326 N 
ATOM     25  C   UNL     1      -4.431   0.424   1.522  1.00  0.00     0.121 C 
ATOM     26  C   UNL     1      -6.485  -0.477   0.621  1.00  0.00     0.189 C 
ATOM     27  C   UNL     1      -5.592   1.308   1.953  1.00  0.00     0.025 C 
ATOM     28  C   UNL     1      -6.795   0.371   1.859  1.00  0.00     0.043 C 
BRANCH  26  29
ATOM     29  C   UNL     1      -7.003   0.165  -0.609  1.00  0.00     0.087 C 
ATOM     30  N   UNL     1      -7.425   0.700  -1.551  1.00  0.00    -0.196 NA
ENDBRANCH  26  29
ENDBRANCH  22  24
ENDBRANCH  21  22
ENDBRANCH   1  21
TORSDOF 8
