REMARK SMILES Nc1ncc(-c2cnn(C3CCNCC3)c2)cc1-c1nnc(CC2CC2)o1
REMARK SMILES IDX 2 1 3 2 4 3 5 4 17 5 18 6 1 7 19 10 20 11 27 12 21 13 22 14
REMARK SMILES IDX 23 15 24 16 25 17 26 18 6 19 16 20 7 21 9 22 8 23 10 24
REMARK SMILES IDX 11 25 15 26 12 27 14 28 13 29
REMARK H PARENT 1 8 1 9 13 30
REMARK Flexibility Score: inf
ROOT
ATOM      1  C   UNL     1       2.282   1.736  -1.152  1.00  0.00     0.136 A 
ATOM      2  N   UNL     1       1.357   2.614  -1.590  1.00  0.00    -0.238 NA
ATOM      3  C   UNL     1       0.054   2.367  -1.316  1.00  0.00     0.122 A 
ATOM      4  C   UNL     1      -0.402   1.269  -0.602  1.00  0.00     0.004 A 
ATOM      5  C   UNL     1       0.571   0.377  -0.149  1.00  0.00     0.028 A 
ATOM      6  C   UNL     1       1.937   0.590  -0.421  1.00  0.00     0.082 A 
ENDROOT
BRANCH   1   7
ATOM      7  N   UNL     1       3.607   2.092  -1.436  1.00  0.00    -0.383 N 
ATOM      8  H   UNL     1       4.103   2.269  -0.567  1.00  0.00     0.158 HD
ATOM      9  H   UNL     1       4.076   1.319  -1.900  1.00  0.00     0.158 HD
ENDBRANCH   1   7
BRANCH   6  10
ATOM     10  C   UNL     1       2.895  -0.388   0.076  1.00  0.00     0.251 A 
ATOM     11  N   UNL     1       2.727  -1.356   0.957  1.00  0.00    -0.108 NA
ATOM     12  O   UNL     1       4.166  -0.375  -0.443  1.00  0.00    -0.421 OA
ATOM     13  N   UNL     1       3.933  -2.015   1.061  1.00  0.00    -0.113 NA
ATOM     14  C   UNL     1       4.755  -1.415   0.228  1.00  0.00     0.217 A 
BRANCH  14  15
ATOM     15  C   UNL     1       6.178  -1.710  -0.077  1.00  0.00     0.103 C 
BRANCH  15  16
ATOM     16  C   UNL     1       7.138  -0.608   0.285  1.00  0.00    -0.002 C 
ATOM     17  C   UNL     1       8.571  -0.931   0.623  1.00  0.00     0.004 C 
ATOM     18  C   UNL     1       7.635  -0.454   1.701  1.00  0.00     0.004 C 
ENDBRANCH  15  16
ENDBRANCH  14  15
ENDBRANCH   6  10
BRANCH   4  19
ATOM     19  C   UNL     1      -1.817   1.073  -0.343  1.00  0.00     0.021 A 
ATOM     20  C   UNL     1      -2.419  -0.138  -0.069  1.00  0.00     0.117 A 
ATOM     21  C   UNL     1      -2.890   1.995  -0.324  1.00  0.00     0.143 A 
ATOM     22  N   UNL     1      -3.756   0.115   0.090  1.00  0.00    -0.269 N 
ATOM     23  N   UNL     1      -4.065   1.418  -0.062  1.00  0.00    -0.181 NA
BRANCH  22  24
ATOM     24  C   UNL     1      -4.793  -0.879   0.376  1.00  0.00     0.110 C 
ATOM     25  C   UNL     1      -5.584  -1.242  -0.885  1.00  0.00     0.042 C 
ATOM     26  C   UNL     1      -5.725  -0.454   1.526  1.00  0.00     0.042 C 
ATOM     27  C   UNL     1      -6.542  -0.127  -1.318  1.00  0.00     0.083 C 
ATOM     28  C   UNL     1      -7.111  -0.034   1.034  1.00  0.00     0.083 C 
ATOM     29  N   UNL     1      -7.035   0.709  -0.219  1.00  0.00    -0.317 NA
ATOM     30  H   UNL     1      -6.348   1.467  -0.092  1.00  0.00     0.122 HD
ENDBRANCH  22  24
ENDBRANCH   4  19
TORSDOF 6
