REMARK SMILES CCCC[N+]1(C)[C@@H]2C[C@@H](OC(=O)[C@H](CO)c3ccccc3)C[C@H]1[C@@H]1O[C@@H]12
REMARK SMILES IDX 10 1 9 2 5 3 6 4 7 5 23 6 8 7 26 8 22 9 24 10 25 11 4 12
REMARK SMILES IDX 3 13 2 14 1 15 11 16 12 17 13 18 14 19 15 20 16 22 17 23
REMARK SMILES IDX 21 24 18 25 20 26 19 27
REMARK H PARENT 15 21
REMARK Flexibility Score: inf
ROOT
ATOM      1  O   UNL     1       1.501   0.043  -1.674  1.00  0.00    -0.461 OA
ENDROOT
BRANCH   1   2
ATOM      2  C   UNL     1       0.332   0.889  -1.785  1.00  0.00     0.188 C 
ATOM      3  N   UNL     1      -2.012   0.787   0.051  1.00  0.00    -0.316 N 
ATOM      4  C   UNL     1      -2.694   1.876  -0.772  1.00  0.00     0.335 C 
ATOM      5  C   UNL     1      -0.591   1.144   0.614  1.00  0.00     0.221 C 
ATOM      6  C   UNL     1      -1.577  -0.498  -0.730  1.00  0.00     0.221 C 
ATOM      7  C   UNL     1       0.227   1.785  -0.523  1.00  0.00     0.113 C 
ATOM      8  C   UNL     1       0.073  -0.177   0.993  1.00  0.00     0.212 C 
ATOM      9  C   UNL     1      -0.871  -0.053  -2.030  1.00  0.00     0.113 C 
ATOM     10  C   UNL     1      -0.556  -1.222   0.130  1.00  0.00     0.212 C 
ATOM     11  O   UNL     1      -0.741  -1.222   1.544  1.00  0.00    -0.357 OA
BRANCH   3  12
ATOM     12  C   UNL     1      -2.967   0.515   1.267  1.00  0.00     0.264 C 
BRANCH  12  13
ATOM     13  C   UNL     1      -4.142  -0.401   0.922  1.00  0.00     0.061 C 
BRANCH  13  14
ATOM     14  C   UNL     1      -5.135  -0.560   2.081  1.00  0.00     0.002 C 
ATOM     15  C   UNL     1      -5.828   0.733   2.483  1.00  0.00     0.004 C 
ENDBRANCH  13  14
ENDBRANCH  12  13
ENDBRANCH   3  12
ENDBRANCH   1   2
BRANCH   1  16
ATOM     16  C   UNL     1       2.699   0.648  -1.959  1.00  0.00     0.316 C 
ATOM     17  O   UNL     1       2.802   1.833  -2.255  1.00  0.00    -0.251 OA
BRANCH  16  18
ATOM     18  C   UNL     1       3.873  -0.294  -1.740  1.00  0.00     0.155 C 
BRANCH  18  19
ATOM     19  C   UNL     1       3.741  -1.520  -2.651  1.00  0.00     0.176 C 
BRANCH  19  20
ATOM     20  O   UNL     1       3.775  -1.126  -4.019  1.00  0.00    -0.395 OA
ATOM     21  H   UNL     1       3.915  -1.927  -4.555  1.00  0.00     0.210 HD
ENDBRANCH  19  20
ENDBRANCH  18  19
BRANCH  18  22
ATOM     22  C   UNL     1       4.030  -0.588  -0.252  1.00  0.00    -0.032 A 
ATOM     23  C   UNL     1       3.646  -1.803   0.334  1.00  0.00     0.005 A 
ATOM     24  C   UNL     1       4.545   0.422   0.581  1.00  0.00     0.005 A 
ATOM     25  C   UNL     1       3.775  -1.999   1.712  1.00  0.00     0.000 A 
ATOM     26  C   UNL     1       4.670   0.224   1.957  1.00  0.00     0.000 A 
ATOM     27  C   UNL     1       4.283  -0.986   2.522  1.00  0.00     0.000 A 
ENDBRANCH  18  22
ENDBRANCH  16  18
ENDBRANCH   1  16
TORSDOF 9
