REMARK SMILES COc1ccc2[n-]c([S+]([O-])Cc3ncc(C)c(OC)c3C)nc2c1
REMARK SMILES IDX 11 1 9 2 10 3 8 4 3 5 4 6 24 7 5 8 23 9 6 10 22 11 7 12 2 13
REMARK SMILES IDX 1 14 12 15 13 16 20 17 14 18 17 19 21 20 15 21 16 22 18 23
REMARK SMILES IDX 19 24
REMARK H PARENT
REMARK Flexibility Score: inf
ROOT
ATOM      1  C   UNL     1      -1.250   3.115  -0.706  1.00  0.00     0.337 C 
ENDROOT
BRANCH   1   2
ATOM      2  S   UNL     1       0.391   3.245  -1.473  1.00  0.00    -0.015 S 
ATOM      3  O   UNL     1       0.912   4.823  -1.264  1.00  0.00    -0.612 OA
BRANCH   2   4
ATOM      4  C   UNL     1       1.244   2.166  -0.293  1.00  0.00     0.140 A 
ATOM      5  C   UNL     1       3.493  -1.001   2.007  1.00  0.00     0.119 A 
ATOM      6  C   UNL     1       3.237  -0.097   3.054  1.00  0.00     0.046 A 
ATOM      7  C   UNL     1       3.039  -0.744   0.710  1.00  0.00     0.050 A 
ATOM      8  C   UNL     1       2.528   1.090   2.850  1.00  0.00     0.008 A 
ATOM      9  C   UNL     1       2.327   0.442   0.497  1.00  0.00    -0.031 A 
ATOM     10  C   UNL     1       2.073   1.350   1.554  1.00  0.00    -0.034 A 
ATOM     11  N   UNL     1       1.760   0.959  -0.622  1.00  0.00    -0.393 NA
ATOM     12  N   UNL     1       1.360   2.379   1.038  1.00  0.00    -0.393 NA
BRANCH   5  13
ATOM     13  O   UNL     1       4.204  -2.114   2.389  1.00  0.00    -0.497 OA
ATOM     14  C   UNL     1       4.544  -3.026   1.352  1.00  0.00     0.278 C 
ENDBRANCH   5  13
ENDBRANCH   2   4
ENDBRANCH   1   2
BRANCH   1  15
ATOM     15  C   UNL     1      -1.988   1.878  -1.156  1.00  0.00     0.096 A 
ATOM     16  N   UNL     1      -2.475   1.942  -2.431  1.00  0.00    -0.255 NA
ATOM     17  C   UNL     1      -2.155   0.741  -0.354  1.00  0.00     0.018 A 
ATOM     18  C   UNL     1      -3.079   0.850  -2.944  1.00  0.00     0.118 A 
ATOM     19  C   UNL     1      -2.722  -0.391  -0.965  1.00  0.00     0.128 A 
ATOM     20  C   UNL     1      -1.723   0.684   1.083  1.00  0.00     0.050 C 
ATOM     21  C   UNL     1      -3.236  -0.342  -2.263  1.00  0.00     0.010 A 
ATOM     22  C   UNL     1      -3.885  -1.521  -2.912  1.00  0.00     0.050 C 
BRANCH  19  23
ATOM     23  O   UNL     1      -2.820  -1.579  -0.277  1.00  0.00    -0.496 OA
ATOM     24  C   UNL     1      -1.578  -2.288  -0.369  1.00  0.00     0.278 C 
ENDBRANCH  19  23
ENDBRANCH   1  15
TORSDOF 5
