REMARK SMILES CC(C)N1CCN(c2ccc(Nc3ncc4cc5n(c4n3)C3(CCCCC3)CNC5=O)nc2)CC1
REMARK SMILES IDX 8 1 9 2 10 3 11 4 32 5 33 6 7 7 4 8 5 9 35 10 6 11 34 12
REMARK SMILES IDX 2 13 1 14 3 15 12 16 13 18 14 19 21 20 15 21 20 22 16 23
REMARK SMILES IDX 19 24 17 25 18 26 22 27 30 28 23 29 28 30 27 31 29 32 31 33
REMARK SMILES IDX 24 34 26 35 25 37
REMARK H PARENT 12 17 29 36
REMARK Flexibility Score: inf
ROOT
ATOM      1  C   UNL     1       3.166   1.069   1.449  1.00  0.00     0.055 A 
ATOM      2  C   UNL     1       2.484   2.070   0.754  1.00  0.00     0.031 A 
ATOM      3  C   UNL     1       1.178   1.881   0.286  1.00  0.00     0.049 A 
ATOM      4  C   UNL     1       0.527   0.682   0.523  1.00  0.00     0.132 A 
ATOM      5  N   UNL     1       1.140  -0.304   1.208  1.00  0.00    -0.237 NA
ATOM      6  C   UNL     1       2.409  -0.085   1.653  1.00  0.00     0.139 A 
ENDROOT
BRANCH   1   7
ATOM      7  N   UNL     1       4.459   1.274   1.927  1.00  0.00    -0.368 N 
ATOM      8  N   UNL     1       6.821  -0.280   1.007  1.00  0.00    -0.297 NA
ATOM      9  C   UNL     1       5.835  -0.816   1.983  1.00  0.00     0.106 C 
ATOM     10  C   UNL     1       6.153   0.755   0.171  1.00  0.00     0.106 C 
ATOM     11  C   UNL     1       5.105   0.277   2.803  1.00  0.00     0.132 C 
ATOM     12  C   UNL     1       5.445   1.861   0.994  1.00  0.00     0.132 C 
BRANCH   8  13
ATOM     13  C   UNL     1       7.426  -1.354   0.176  1.00  0.00     0.050 C 
ATOM     14  C   UNL     1       8.095  -2.444   1.031  1.00  0.00     0.024 C 
ATOM     15  C   UNL     1       8.494  -0.801  -0.784  1.00  0.00     0.024 C 
ENDBRANCH   8  13
ENDBRANCH   1   7
BRANCH   4  16
ATOM     16  N   UNL     1      -0.759   0.391   0.111  1.00  0.00    -0.309 N 
ATOM     17  H   UNL     1      -1.061  -0.524   0.401  1.00  0.00     0.171 HD
BRANCH  16  18
ATOM     18  C   UNL     1      -1.749   1.079  -0.570  1.00  0.00     0.230 A 
ATOM     19  N   UNL     1      -1.528   2.321  -1.041  1.00  0.00    -0.221 NA
ATOM     20  N   UNL     1      -2.905   0.407  -0.705  1.00  0.00    -0.194 NA
ATOM     21  C   UNL     1      -2.518   2.972  -1.691  1.00  0.00     0.127 A 
ATOM     22  C   UNL     1      -3.871   1.073  -1.347  1.00  0.00     0.146 A 
ATOM     23  C   UNL     1      -3.748   2.354  -1.863  1.00  0.00     0.038 A 
ATOM     24  N   UNL     1      -5.146   0.630  -1.602  1.00  0.00    -0.313 N 
ATOM     25  C   UNL     1      -4.985   2.698  -2.448  1.00  0.00     0.045 A 
ATOM     26  C   UNL     1      -5.843   1.627  -2.280  1.00  0.00     0.109 A 
ATOM     27  C   UNL     1      -5.809  -0.635  -1.201  1.00  0.00     0.064 C 
ATOM     28  C   UNL     1      -7.219   1.516  -2.696  1.00  0.00     0.268 C 
ATOM     29  C   UNL     1      -6.485  -0.456   0.184  1.00  0.00     0.031 C 
ATOM     30  C   UNL     1      -6.931  -0.875  -2.268  1.00  0.00     0.145 C 
ATOM     31  C   UNL     1      -4.910  -1.908  -1.254  1.00  0.00     0.031 C 
ATOM     32  N   UNL     1      -7.773   0.279  -2.492  1.00  0.00    -0.348 N 
ATOM     33  O   UNL     1      -7.876   2.421  -3.197  1.00  0.00    -0.268 OA
ATOM     34  C   UNL     1      -5.552  -0.705   1.363  1.00  0.00     0.002 C 
ATOM     35  C   UNL     1      -4.161  -2.306   0.021  1.00  0.00     0.002 C 
ATOM     36  H   UNL     1      -8.685   0.171  -2.919  1.00  0.00     0.163 HD
ATOM     37  C   UNL     1      -4.969  -2.107   1.293  1.00  0.00     0.000 C 
ENDBRANCH  16  18
ENDBRANCH   4  16
TORSDOF 4
