REMARK SMILES O=C(c1cc(Cc2n[nH]c(=O)c3ccccc23)ccc1F)N1CCN(C(=O)C2CC2)CC1
REMARK SMILES IDX 3 1 4 2 5 3 18 4 19 5 20 6 21 7 2 8 1 9 22 10 23 11 32 12
REMARK SMILES IDX 24 13 31 14 25 15 26 16 27 17 28 18 29 19 30 20 6 21 7 22
REMARK SMILES IDX 8 23 17 24 9 25 12 26 16 27 10 28 13 30 15 31 11 32 14 33
REMARK H PARENT 9 29
REMARK Flexibility Score: inf
ROOT
ATOM      1  C   UNL     1       0.623  -1.420  -2.165  1.00  0.00     0.076 A 
ATOM      2  C   UNL     1       1.772  -0.658  -1.915  1.00  0.00     0.021 A 
ATOM      3  C   UNL     1       2.924  -1.268  -1.396  1.00  0.00    -0.041 A 
ATOM      4  C   UNL     1       2.914  -2.654  -1.169  1.00  0.00     0.007 A 
ATOM      5  C   UNL     1       1.775  -3.414  -1.447  1.00  0.00     0.040 A 
ATOM      6  C   UNL     1       0.637  -2.794  -1.952  1.00  0.00     0.135 A 
ATOM      7  F   UNL     1      -0.437  -3.547  -2.231  1.00  0.00    -0.206 F 
ENDROOT
BRANCH   1   8
ATOM      8  C   UNL     1      -0.560  -0.749  -2.729  1.00  0.00     0.256 C 
ATOM      9  O   UNL     1      -0.418  -0.176  -3.807  1.00  0.00    -0.269 OA
ATOM     10  N   UNL     1      -1.747  -0.738  -2.003  1.00  0.00    -0.335 N 
ATOM     11  C   UNL     1      -2.920  -0.072  -2.575  1.00  0.00     0.141 C 
ATOM     12  C   UNL     1      -1.867  -1.180  -0.604  1.00  0.00     0.141 C 
ATOM     13  C   UNL     1      -3.513   0.958  -1.604  1.00  0.00     0.141 C 
ATOM     14  C   UNL     1      -3.260  -0.941  -0.002  1.00  0.00     0.141 C 
ATOM     15  N   UNL     1      -3.747   0.415  -0.261  1.00  0.00    -0.339 N 
ATOM     16  C   UNL     1      -4.423   1.096   0.740  1.00  0.00     0.225 C 
ATOM     17  O   UNL     1      -4.617   0.640   1.862  1.00  0.00    -0.275 OA
BRANCH  16  18
ATOM     18  C   UNL     1      -4.921   2.462   0.408  1.00  0.00     0.079 C 
ATOM     19  C   UNL     1      -6.119   3.032   1.137  1.00  0.00     0.014 C 
ATOM     20  C   UNL     1      -6.248   2.631  -0.300  1.00  0.00     0.014 C 
ENDBRANCH  16  18
ENDBRANCH   1   8
BRANCH   3  21
ATOM     21  C   UNL     1       4.173  -0.455  -1.133  1.00  0.00     0.094 C 
BRANCH  21  22
ATOM     22  C   UNL     1       4.677  -0.581   0.299  1.00  0.00     0.073 C 
ATOM     23  N   UNL     1       5.656  -1.413   0.508  1.00  0.00    -0.177 NA
ATOM     24  C   UNL     1       4.046   0.214   1.386  1.00  0.00     0.011 A 
ATOM     25  N   UNL     1       6.122  -1.560   1.776  1.00  0.00    -0.243 N 
ATOM     26  C   UNL     1       4.543   0.032   2.675  1.00  0.00     0.050 A 
ATOM     27  C   UNL     1       2.998   1.119   1.178  1.00  0.00     0.011 A 
ATOM     28  C   UNL     1       5.651  -0.913   2.892  1.00  0.00     0.272 C 
ATOM     29  H   UNL     1       6.890  -2.212   1.907  1.00  0.00     0.194 HD
ATOM     30  C   UNL     1       4.002   0.739   3.756  1.00  0.00     0.014 A 
ATOM     31  C   UNL     1       2.456   1.826   2.257  1.00  0.00     0.001 A 
ATOM     32  O   UNL     1       6.121  -1.102   4.009  1.00  0.00    -0.267 OA
ATOM     33  C   UNL     1       2.956   1.636   3.544  1.00  0.00     0.001 A 
ENDBRANCH  21  22
ENDBRANCH   3  21
TORSDOF 4
