REMARK SMILES CCn1cc(C(=O)O)c(=O)c2cc(F)c(N3CCNC(C)C3)c(F)c21
REMARK SMILES IDX 3 1 4 2 5 3 9 4 10 5 11 6 12 7 13 8 14 9 15 10 23 11 24 12
REMARK SMILES IDX 25 13 2 14 1 15 6 16 7 17 8 18 16 20 17 21 22 22 18 23 20 24
REMARK SMILES IDX 19 25 21 26
REMARK H PARENT 8 19 19 27
REMARK Flexibility Score: inf
ROOT
ATOM      1  N   UNL     1       2.408  -0.502  -1.479  1.00  0.00    -0.344 N 
ATOM      2  C   UNL     1       3.796  -0.516  -1.404  1.00  0.00     0.106 C 
ATOM      3  C   UNL     1       4.557   0.090  -0.482  1.00  0.00     0.124 C 
ATOM      4  C   UNL     1       3.853   0.887   0.543  1.00  0.00     0.204 C 
ATOM      5  O   UNL     1       4.441   1.596   1.352  1.00  0.00    -0.288 OA
ATOM      6  C   UNL     1       2.367   0.836   0.553  1.00  0.00     0.053 A 
ATOM      7  C   UNL     1       1.697   1.503   1.580  1.00  0.00     0.056 A 
ATOM      8  C   UNL     1       0.310   1.481   1.631  1.00  0.00     0.150 A 
ATOM      9  F   UNL     1      -0.266   2.114   2.667  1.00  0.00    -0.205 F 
ATOM     10  C   UNL     1      -0.473   0.805   0.679  1.00  0.00     0.112 A 
ATOM     11  C   UNL     1       0.252   0.148  -0.351  1.00  0.00     0.173 A 
ATOM     12  F   UNL     1      -0.461  -0.490  -1.295  1.00  0.00    -0.202 F 
ATOM     13  C   UNL     1       1.667   0.142  -0.454  1.00  0.00     0.091 A 
ENDROOT
BRANCH   1  14
ATOM     14  C   UNL     1       1.723  -1.196  -2.587  1.00  0.00     0.119 C 
ATOM     15  C   UNL     1       1.361  -2.624  -2.202  1.00  0.00     0.027 C 
ENDBRANCH   1  14
BRANCH   3  16
ATOM     16  C   UNL     1       6.012  -0.077  -0.576  1.00  0.00     0.341 C 
ATOM     17  O   UNL     1       6.631  -0.356  -1.591  1.00  0.00    -0.246 OA
BRANCH  16  18
ATOM     18  O   UNL     1       6.642   0.037   0.601  1.00  0.00    -0.477 OA
ATOM     19  H   UNL     1       7.591  -0.079   0.395  1.00  0.00     0.297 HD
ENDBRANCH  16  18
ENDBRANCH   3  16
BRANCH  10  20
ATOM     20  N   UNL     1      -1.866   0.782   0.752  1.00  0.00    -0.364 N 
ATOM     21  C   UNL     1      -2.611   1.848   1.445  1.00  0.00     0.132 C 
ATOM     22  C   UNL     1      -2.671  -0.252   0.080  1.00  0.00     0.135 C 
ATOM     23  C   UNL     1      -4.035   2.003   0.863  1.00  0.00     0.102 C 
ATOM     24  C   UNL     1      -4.038  -0.437   0.797  1.00  0.00     0.070 C 
ATOM     25  N   UNL     1      -4.865   0.787   0.872  1.00  0.00    -0.311 NA
ATOM     26  C   UNL     1      -4.861  -1.530   0.118  1.00  0.00     0.026 C 
ATOM     27  H   UNL     1      -5.408   0.752   1.735  1.00  0.00     0.123 HD
ENDBRANCH  10  20
TORSDOF 4
