REMARK SMILES c1ccc2c(CCC3CCNCC3)c[nH]c2c1
REMARK SMILES IDX 6 1 5 2 1 3 2 4 17 5 3 6 16 7 4 8 15 9 14 10 7 12 8 13 9 14
REMARK SMILES IDX 13 15 10 16 12 17 11 18
REMARK H PARENT 15 11 11 19
REMARK Flexibility Score: inf
ROOT
ATOM      1  C   UNL     1       0.379  -0.637  -0.718  1.00  0.00     0.038 C 
ENDROOT
BRANCH   1   2
ATOM      2  C   UNL     1       1.712  -0.986  -0.133  1.00  0.00    -0.023 A 
ATOM      3  C   UNL     1       5.248   1.091   0.816  1.00  0.00     0.002 A 
ATOM      4  C   UNL     1       4.231   1.867   0.266  1.00  0.00     0.001 A 
ATOM      5  C   UNL     1       5.074  -0.280   1.025  1.00  0.00     0.026 A 
ATOM      6  C   UNL     1       3.007   1.289  -0.091  1.00  0.00     0.010 A 
ATOM      7  C   UNL     1       3.844  -0.842   0.662  1.00  0.00     0.046 A 
ATOM      8  C   UNL     1       2.805  -0.092   0.108  1.00  0.00     0.003 A 
ATOM      9  N   UNL     1       3.401  -2.140   0.754  1.00  0.00    -0.361 N 
ATOM     10  C   UNL     1       2.121  -2.239   0.279  1.00  0.00     0.087 A 
ATOM     11  H   UNL     1       3.948  -2.906   1.121  1.00  0.00     0.166 HD
ENDBRANCH   1   2
BRANCH   1  12
ATOM     12  C   UNL     1      -0.608  -0.156   0.350  1.00  0.00     0.008 C 
BRANCH  12  13
ATOM     13  C   UNL     1      -1.943   0.348  -0.228  1.00  0.00    -0.008 C 
ATOM     14  C   UNL     1      -2.798   0.993   0.885  1.00  0.00     0.019 C 
ATOM     15  C   UNL     1      -2.749  -0.746  -0.939  1.00  0.00     0.019 C 
ATOM     16  C   UNL     1      -4.301   0.773   0.698  1.00  0.00     0.081 C 
ATOM     17  C   UNL     1      -4.061  -0.188  -1.509  1.00  0.00     0.081 C 
ATOM     18  N   UNL     1      -4.684   0.869  -0.707  1.00  0.00    -0.317 NA
ATOM     19  H   UNL     1      -4.382   1.776  -1.065  1.00  0.00     0.122 HD
ENDBRANCH  12  13
ENDBRANCH   1  12
TORSDOF 3
