REMARK SMILES O=C(O)c1ccc(Nc2ncc3c(n2)-c2ccc(Cl)cc2C(c2c(F)cccc2F)=NC3)cc1
REMARK SMILES IDX 4 1 5 2 6 3 7 4 33 5 34 6 2 7 1 8 3 9 8 11 9 13 10 14 14 15
REMARK SMILES IDX 11 16 13 17 12 18 15 19 32 20 21 21 16 22 31 23 22 24 20 25
REMARK SMILES IDX 17 26 18 27 19 28 23 29 24 30 29 31 25 32 26 33 28 34 30 35
REMARK SMILES IDX 27 36
REMARK H PARENT 3 10 8 12
REMARK Flexibility Score: inf
ROOT
ATOM      1  C   UNL     1       6.838   1.013   0.291  1.00  0.00     0.060 A 
ATOM      2  C   UNL     1       6.418   0.778  -1.019  1.00  0.00     0.018 A 
ATOM      3  C   UNL     1       5.103   0.369  -1.270  1.00  0.00     0.027 A 
ATOM      4  C   UNL     1       4.177   0.187  -0.228  1.00  0.00     0.041 A 
ATOM      5  C   UNL     1       4.619   0.422   1.078  1.00  0.00     0.027 A 
ATOM      6  C   UNL     1       5.933   0.832   1.340  1.00  0.00     0.018 A 
ENDROOT
BRANCH   1   7
ATOM      7  C   UNL     1       8.218   1.447   0.615  1.00  0.00     0.335 C 
ATOM      8  O   UNL     1       8.656   1.668   1.728  1.00  0.00    -0.246 OA
BRANCH   7   9
ATOM      9  O   UNL     1       8.991   1.586  -0.478  1.00  0.00    -0.478 OA
ATOM     10  H   UNL     1       9.855   1.872  -0.114  1.00  0.00     0.297 HD
ENDBRANCH   7   9
ENDBRANCH   1   7
BRANCH   4  11
ATOM     11  N   UNL     1       2.884  -0.235  -0.552  1.00  0.00    -0.324 N 
ATOM     12  H   UNL     1       2.661  -0.323  -1.532  1.00  0.00     0.170 HD
BRANCH  11  13
ATOM     13  C   UNL     1       1.737  -0.503   0.190  1.00  0.00     0.227 A 
ATOM     14  N   UNL     1       1.717  -0.422   1.525  1.00  0.00    -0.221 NA
ATOM     15  N   UNL     1       0.667  -0.855  -0.540  1.00  0.00    -0.212 NA
ATOM     16  C   UNL     1       0.555  -0.698   2.143  1.00  0.00     0.123 A 
ATOM     17  C   UNL     1      -0.493  -1.121   0.107  1.00  0.00     0.082 A 
ATOM     18  C   UNL     1      -0.592  -1.067   1.482  1.00  0.00     0.018 A 
ATOM     19  C   UNL     1      -1.626  -1.522  -0.752  1.00  0.00     0.010 A 
ATOM     20  C   UNL     1      -1.870  -1.369   2.187  1.00  0.00     0.182 C 
ATOM     21  C   UNL     1      -2.971  -1.179  -0.481  1.00  0.00     0.011 A 
ATOM     22  C   UNL     1      -1.373  -2.305  -1.900  1.00  0.00     0.012 A 
ATOM     23  N   UNL     1      -2.888  -0.378   1.871  1.00  0.00    -0.279 NA
ATOM     24  C   UNL     1      -3.361  -0.301   0.672  1.00  0.00     0.079 C 
ATOM     25  C   UNL     1      -4.008  -1.644  -1.313  1.00  0.00     0.031 A 
ATOM     26  C   UNL     1      -2.404  -2.749  -2.733  1.00  0.00     0.021 A 
ATOM     27  C   UNL     1      -3.717  -2.421  -2.430  1.00  0.00     0.041 A 
ATOM     28  Cl  UNL     1      -4.994  -2.975  -3.441  1.00  0.00    -0.084 Cl
BRANCH  24  29
ATOM     29  C   UNL     1      -4.368   0.762   0.422  1.00  0.00     0.072 A 
ATOM     30  C   UNL     1      -4.177   1.689  -0.601  1.00  0.00     0.135 A 
ATOM     31  C   UNL     1      -5.505   0.860   1.222  1.00  0.00     0.135 A 
ATOM     32  F   UNL     1      -3.090   1.633  -1.384  1.00  0.00    -0.206 F 
ATOM     33  C   UNL     1      -5.109   2.700  -0.830  1.00  0.00     0.040 A 
ATOM     34  C   UNL     1      -6.444   1.867   1.001  1.00  0.00     0.040 A 
ATOM     35  F   UNL     1      -5.747  -0.035   2.191  1.00  0.00    -0.206 F 
ATOM     36  C   UNL     1      -6.246   2.791  -0.026  1.00  0.00     0.006 A 
ENDBRANCH  24  29
ENDBRANCH  11  13
ENDBRANCH   4  11
TORSDOF 5
