REMARK SMILES COc1cc(NS(C)(=O)=O)ccc1Nc1c2ccccc2nc2ccccc12
REMARK SMILES IDX 3 1 4 2 5 3 11 4 12 5 13 6 2 7 1 8 14 9 15 11 16 12 28 13
REMARK SMILES IDX 17 14 21 15 23 16 27 17 18 18 20 19 22 20 24 21 26 22 19 23
REMARK SMILES IDX 25 24 6 25 7 27 8 28 9 29 10 30
REMARK H PARENT 14 10 6 26
REMARK Flexibility Score: inf
ROOT
ATOM      1  C   UNL     1       1.285  -1.035   1.131  1.00  0.00     0.144 A 
ATOM      2  C   UNL     1       2.601  -0.578   1.239  1.00  0.00     0.075 A 
ATOM      3  C   UNL     1       3.047   0.472   0.435  1.00  0.00     0.052 A 
ATOM      4  C   UNL     1       2.177   1.084  -0.466  1.00  0.00     0.029 A 
ATOM      5  C   UNL     1       0.859   0.638  -0.574  1.00  0.00     0.032 A 
ATOM      6  C   UNL     1       0.393  -0.410   0.231  1.00  0.00     0.081 A 
ENDROOT
BRANCH   1   7
ATOM      7  O   UNL     1       0.741  -2.055   1.877  1.00  0.00    -0.494 OA
ATOM      8  C   UNL     1       1.648  -2.837   2.647  1.00  0.00     0.278 C 
ENDBRANCH   1   7
BRANCH   6   9
ATOM      9  N   UNL     1      -0.927  -0.933   0.089  1.00  0.00    -0.351 N 
ATOM     10  H   UNL     1      -1.137  -1.457   0.942  1.00  0.00     0.167 HD
BRANCH   9  11
ATOM     11  C   UNL     1      -2.057  -0.158  -0.317  1.00  0.00     0.058 A 
ATOM     12  C   UNL     1      -2.487  -0.220  -1.667  1.00  0.00     0.024 A 
ATOM     13  C   UNL     1      -2.722   0.693   0.604  1.00  0.00     0.024 A 
ATOM     14  C   UNL     1      -1.881  -1.042  -2.648  1.00  0.00     0.012 A 
ATOM     15  C   UNL     1      -3.581   0.582  -2.032  1.00  0.00     0.073 A 
ATOM     16  C   UNL     1      -3.807   1.442   0.110  1.00  0.00     0.073 A 
ATOM     17  C   UNL     1      -2.363   0.834   1.968  1.00  0.00     0.012 A 
ATOM     18  C   UNL     1      -2.346  -1.063  -3.961  1.00  0.00     0.001 A 
ATOM     19  C   UNL     1      -4.028   0.545  -3.347  1.00  0.00     0.029 A 
ATOM     20  N   UNL     1      -4.217   1.385  -1.166  1.00  0.00    -0.248 NA
ATOM     21  C   UNL     1      -4.490   2.286   0.976  1.00  0.00     0.029 A 
ATOM     22  C   UNL     1      -3.063   1.689   2.817  1.00  0.00     0.001 A 
ATOM     23  C   UNL     1      -3.425  -0.264  -4.312  1.00  0.00     0.002 A 
ATOM     24  C   UNL     1      -4.133   2.417   2.319  1.00  0.00     0.002 A 
ENDBRANCH   9  11
ENDBRANCH   6   9
BRANCH   3  25
ATOM     25  N   UNL     1       4.390   0.940   0.510  1.00  0.00    -0.284 N 
ATOM     26  H   UNL     1       4.574   1.892   0.194  1.00  0.00     0.180 HD
BRANCH  25  27
ATOM     27  S   UNL     1       5.664  -0.106   0.160  1.00  0.00     0.229 S 
ATOM     28  C   UNL     1       5.334  -0.560  -1.532  1.00  0.00     0.183 C 
ATOM     29  O   UNL     1       5.568  -1.291   0.984  1.00  0.00    -0.207 OA
ATOM     30  O   UNL     1       6.856   0.716   0.165  1.00  0.00    -0.207 OA
ENDBRANCH  25  27
ENDBRANCH   3  25
TORSDOF 5
