REMARK SMILES O=C(NCCN1CCOCC1)Nc1nc2ccc(Sc3nnc4ccc(-c5ccc(F)cc5)nn34)cc2s1
REMARK SMILES IDX 18 1 17 2 16 3 15 4 14 5 13 6 38 7 37 8 36 9 19 10 20 11
REMARK SMILES IDX 26 12 34 13 25 14 35 15 24 16 23 17 21 18 22 19 27 20 31 21
REMARK SMILES IDX 30 22 29 23 32 24 28 25 33 26 12 27 2 28 1 30 3 31 4 33 5 34
REMARK SMILES IDX 6 35 7 36 11 37 8 38 10 39 9 40
REMARK H PARENT 12 29 3 32
REMARK Flexibility Score: inf
ROOT
ATOM      1  C   UNL     1       2.818   0.833  -3.050  1.00  0.00     0.017 A 
ATOM      2  C   UNL     1       2.002   1.962  -3.135  1.00  0.00     0.018 A 
ATOM      3  C   UNL     1       0.789   2.024  -2.438  1.00  0.00     0.031 A 
ATOM      4  C   UNL     1       0.378   0.931  -1.652  1.00  0.00     0.084 A 
ATOM      5  N   UNL     1      -0.793   0.851  -0.922  1.00  0.00    -0.220 NA
ATOM      6  C   UNL     1      -0.868  -0.315  -0.339  1.00  0.00     0.191 A 
ATOM      7  S   UNL     1       0.449  -1.373  -0.575  1.00  0.00    -0.096 S 
ATOM      8  C   UNL     1       1.201  -0.195  -1.586  1.00  0.00     0.058 A 
ATOM      9  C   UNL     1       2.424  -0.266  -2.274  1.00  0.00     0.037 A 
ENDROOT
BRANCH   1  10
ATOM     10  S   UNL     1       4.351   0.737  -3.963  1.00  0.00    -0.048 SA
BRANCH  10  11
ATOM     11  C   UNL     1       5.193   2.015  -3.160  1.00  0.00     0.217 A 
ATOM     12  C   UNL     1       7.003   0.807  -0.337  1.00  0.00     0.091 C 
ATOM     13  N   UNL     1       6.202   0.657  -1.351  1.00  0.00    -0.164 NA
ATOM     14  C   UNL     1       7.591   2.112   0.101  1.00  0.00     0.035 C 
ATOM     15  N   UNL     1       5.961   1.822  -2.037  1.00  0.00    -0.187 N 
ATOM     16  C   UNL     1       7.294   3.202  -0.618  1.00  0.00     0.053 C 
ATOM     17  C   UNL     1       6.455   3.078  -1.743  1.00  0.00     0.178 A 
ATOM     18  N   UNL     1       5.216   3.280  -3.520  1.00  0.00    -0.121 NA
ATOM     19  N   UNL     1       6.012   3.955  -2.618  1.00  0.00    -0.128 NA
BRANCH  12  20
ATOM     20  C   UNL     1       7.360  -0.385   0.480  1.00  0.00     0.002 A 
ATOM     21  F   UNL     1       8.258  -3.741   2.696  1.00  0.00    -0.207 F 
ATOM     22  C   UNL     1       7.966  -2.652   1.974  1.00  0.00     0.123 A 
ATOM     23  C   UNL     1       8.962  -1.716   1.714  1.00  0.00     0.040 A 
ATOM     24  C   UNL     1       6.674  -2.478   1.490  1.00  0.00     0.040 A 
ATOM     25  C   UNL     1       8.663  -0.578   0.962  1.00  0.00     0.013 A 
ATOM     26  C   UNL     1       6.370  -1.344   0.735  1.00  0.00     0.013 A 
ENDBRANCH  12  20
ENDBRANCH  10  11
ENDBRANCH   1  10
BRANCH   6  27
ATOM     27  N   UNL     1      -1.850  -0.828   0.462  1.00  0.00    -0.284 N 
ATOM     28  C   UNL     1      -3.052  -0.192   0.655  1.00  0.00     0.321 C 
ATOM     29  H   UNL     1      -1.748  -1.783   0.754  1.00  0.00     0.174 HD
ATOM     30  O   UNL     1      -3.427   0.854   0.148  1.00  0.00    -0.248 OA
ATOM     31  N   UNL     1      -3.850  -0.923   1.524  1.00  0.00    -0.337 N 
ATOM     32  H   UNL     1      -3.336  -1.384   2.260  1.00  0.00     0.165 HD
BRANCH  31  33
ATOM     33  C   UNL     1      -5.161  -0.417   1.914  1.00  0.00     0.133 C 
BRANCH  33  34
ATOM     34  C   UNL     1      -6.200  -0.472   0.775  1.00  0.00     0.106 C 
BRANCH  34  35
ATOM     35  N   UNL     1      -7.566  -0.116   1.206  1.00  0.00    -0.297 NA
ATOM     36  C   UNL     1      -8.127  -1.102   2.157  1.00  0.00     0.113 C 
ATOM     37  C   UNL     1      -8.470   0.060   0.048  1.00  0.00     0.113 C 
ATOM     38  C   UNL     1      -9.662  -1.127   2.122  1.00  0.00     0.175 C 
ATOM     39  C   UNL     1      -9.339  -1.171  -0.247  1.00  0.00     0.175 C 
ATOM     40  O   UNL     1     -10.168  -1.566   0.855  1.00  0.00    -0.379 OA
ENDBRANCH  34  35
ENDBRANCH  33  34
ENDBRANCH  31  33
ENDBRANCH   6  27
TORSDOF 7
