REMARK SMILES Cc1ccnc2c1NC(=O)c1cccnc1N2C1CC1
REMARK SMILES IDX 1 1 2 2 3 3 4 4 5 5 6 6 7 7 8 8 9 9 10 10 11 11 12 12 13 13
REMARK SMILES IDX 14 14 15 15 16 16 17 17 18 19 19 20 20 21
REMARK H PARENT 8 18
REMARK Flexibility Score: inf
ROOT
ATOM      1  C   UNL     1       4.133   0.395  -0.182  1.00  0.00     0.047 C 
ATOM      2  C   UNL     1       2.923  -0.398   0.238  1.00  0.00    -0.022 A 
ATOM      3  C   UNL     1       3.125  -1.570   0.969  1.00  0.00     0.026 A 
ATOM      4  C   UNL     1       2.026  -2.304   1.350  1.00  0.00     0.114 A 
ATOM      5  N   UNL     1       0.763  -1.957   1.047  1.00  0.00    -0.237 NA
ATOM      6  C   UNL     1       0.531  -0.813   0.339  1.00  0.00     0.158 A 
ATOM      7  C   UNL     1       1.601   0.001  -0.078  1.00  0.00     0.088 A 
ATOM      8  N   UNL     1       1.454   1.149  -0.875  1.00  0.00    -0.318 N 
ATOM      9  C   UNL     1       0.391   1.979  -1.080  1.00  0.00     0.259 C 
ATOM     10  O   UNL     1       0.528   2.900  -1.889  1.00  0.00    -0.269 OA
ATOM     11  C   UNL     1      -0.841   1.909  -0.283  1.00  0.00     0.083 A 
ATOM     12  C   UNL     1      -1.512   3.127  -0.061  1.00  0.00     0.019 A 
ATOM     13  C   UNL     1      -2.719   3.152   0.622  1.00  0.00     0.021 A 
ATOM     14  C   UNL     1      -3.228   1.948   1.049  1.00  0.00     0.113 A 
ATOM     15  N   UNL     1      -2.613   0.765   0.840  1.00  0.00    -0.238 NA
ATOM     16  C   UNL     1      -1.411   0.731   0.184  1.00  0.00     0.147 A 
ATOM     17  N   UNL     1      -0.817  -0.539  -0.037  1.00  0.00    -0.305 N 
ATOM     18  H   UNL     1       2.273   1.494  -1.359  1.00  0.00     0.170 HD
ENDROOT
BRANCH  17  19
ATOM     19  C   UNL     1      -1.750  -1.697   0.085  1.00  0.00     0.091 C 
ATOM     20  C   UNL     1      -1.667  -2.871  -0.860  1.00  0.00     0.028 C 
ATOM     21  C   UNL     1      -2.835  -1.937  -0.938  1.00  0.00     0.028 C 
ENDBRANCH  17  19
TORSDOF 1
