REMARK SMILES O=c1[nH]c(=O)n([C@@H]2O[C@H](CO)[C@@H](O)[C@@H]2O)cc1/C=C/Br
REMARK SMILES IDX 7 1 8 2 9 3 12 4 14 5 6 6 1 7 2 8 3 9 17 10 4 11 16 13 5 14
REMARK SMILES IDX 18 15 19 16 20 17 15 18 10 20 11 21 13 23
REMARK H PARENT 3 12 15 19 11 22 13 24
REMARK Flexibility Score: inf
ROOT
ATOM      1  C   UNL     1      -0.716   0.304   0.875  1.00  0.00     0.255 C 
ATOM      2  O   UNL     1      -1.683  -0.757   0.874  1.00  0.00    -0.347 OA
ATOM      3  C   UNL     1      -2.950  -0.194   0.466  1.00  0.00     0.178 C 
ATOM      4  C   UNL     1      -2.634   1.037  -0.375  1.00  0.00     0.179 C 
ATOM      5  C   UNL     1      -1.384   1.569   0.303  1.00  0.00     0.196 C 
ENDROOT
BRANCH   1   6
ATOM      6  N   UNL     1       0.513  -0.135   0.208  1.00  0.00    -0.271 N 
ATOM      7  O   UNL     1       3.870  -1.335  -1.628  1.00  0.00    -0.269 OA
ATOM      8  C   UNL     1       2.874  -0.929  -1.040  1.00  0.00     0.260 C 
ATOM      9  N   UNL     1       1.647  -0.990  -1.636  1.00  0.00    -0.273 N 
ATOM     10  C   UNL     1       2.909  -0.350   0.340  1.00  0.00     0.057 C 
ATOM     11  C   UNL     1       0.446  -0.661  -1.072  1.00  0.00     0.330 C 
ATOM     12  H   UNL     1       1.610  -1.399  -2.558  1.00  0.00     0.175 HD
ATOM     13  C   UNL     1       1.724   0.006   0.866  1.00  0.00     0.107 C 
ATOM     14  O   UNL     1      -0.592  -0.855  -1.698  1.00  0.00    -0.248 OA
BRANCH  10  15
ATOM     15  C   UNL     1       4.133  -0.173   1.112  1.00  0.00     0.023 C 
ATOM     16  C   UNL     1       5.389  -0.434   0.727  1.00  0.00     0.052 C 
ATOM     17  Br  UNL     1       6.871  -0.158   1.815  1.00  0.00    -0.059 Br
ENDBRANCH  10  15
ENDBRANCH   1   6
BRANCH   5  18
ATOM     18  O   UNL     1      -0.596   2.353  -0.592  1.00  0.00    -0.386 OA
ATOM     19  H   UNL     1       0.289   2.455  -0.203  1.00  0.00     0.211 HD
ENDBRANCH   5  18
BRANCH   3  20
ATOM     20  C   UNL     1      -3.779  -1.254  -0.262  1.00  0.00     0.191 C 
BRANCH  20  21
ATOM     21  O   UNL     1      -3.222  -1.636  -1.516  1.00  0.00    -0.394 OA
ATOM     22  H   UNL     1      -2.243  -1.587  -1.445  1.00  0.00     0.210 HD
ENDBRANCH  20  21
ENDBRANCH   3  20
BRANCH   4  23
ATOM     23  O   UNL     1      -3.684   2.001  -0.330  1.00  0.00    -0.387 OA
ATOM     24  H   UNL     1      -3.402   2.727  -0.919  1.00  0.00     0.211 HD
ENDBRANCH   4  23
TORSDOF 6
