REMARK SMILES Cn1cc([S+](C)[O-])c(=O)c2ccc(F)cc21
REMARK SMILES IDX 1 1 2 2 3 3 4 4 8 5 9 6 10 7 11 8 12 9 13 10 14 11 15 12
REMARK SMILES IDX 16 13 5 14 6 15 7 16
REMARK H PARENT
REMARK Flexibility Score: inf
ROOT
ATOM      1  C   UNL     1      -1.476  -2.152  -1.263  1.00  0.00     0.150 C 
ATOM      2  N   UNL     1      -0.633  -1.198  -0.539  1.00  0.00    -0.346 N 
ATOM      3  C   UNL     1       0.742  -1.357  -0.461  1.00  0.00     0.151 C 
ATOM      4  C   UNL     1       1.595  -0.546   0.176  1.00  0.00     0.216 C 
ATOM      5  C   UNL     1       1.030   0.623   0.891  1.00  0.00     0.244 C 
ATOM      6  O   UNL     1       1.743   1.407   1.509  1.00  0.00    -0.283 OA
ATOM      7  C   UNL     1      -0.442   0.818   0.830  1.00  0.00     0.051 A 
ATOM      8  C   UNL     1      -1.003   1.922   1.494  1.00  0.00     0.017 A 
ATOM      9  C   UNL     1      -2.378   2.128   1.453  1.00  0.00     0.040 A 
ATOM     10  C   UNL     1      -3.174   1.234   0.751  1.00  0.00     0.125 A 
ATOM     11  F   UNL     1      -4.499   1.429   0.708  1.00  0.00    -0.207 F 
ATOM     12  C   UNL     1      -2.626   0.135   0.090  1.00  0.00     0.066 A 
ATOM     13  C   UNL     1      -1.243  -0.102   0.112  1.00  0.00     0.055 A 
ENDROOT
BRANCH   4  14
ATOM     14  S   UNL     1       3.337  -0.882   0.213  1.00  0.00    -0.013 S 
ATOM     15  C   UNL     1       3.887   0.573  -0.713  1.00  0.00     0.346 C 
ATOM     16  O   UNL     1       3.602  -2.211  -0.747  1.00  0.00    -0.612 OA
ENDBRANCH   4  14
TORSDOF 1
