REMARK SMILES Clc1ccc2nsnc2c1NC1=NCCN1
REMARK SMILES IDX 1 1 2 2 3 3 4 4 5 5 6 6 7 7 8 8 9 9 10 10 11 11 12 12 13 14
REMARK SMILES IDX 16 15 14 16 15 17
REMARK H PARENT 11 13 16 18
REMARK Flexibility Score: inf
ROOT
ATOM      1  Cl  UNL     1       1.135  -2.990  -1.632  1.00  0.00    -0.082 Cl
ATOM      2  C   UNL     1       1.780  -1.569  -0.857  1.00  0.00     0.067 A 
ATOM      3  C   UNL     1       3.167  -1.336  -1.040  1.00  0.00     0.025 A 
ATOM      4  C   UNL     1       3.837  -0.242  -0.475  1.00  0.00     0.033 A 
ATOM      5  C   UNL     1       3.051   0.615   0.326  1.00  0.00     0.107 A 
ATOM      6  N   UNL     1       3.512   1.692   0.979  1.00  0.00    -0.173 NA
ATOM      7  S   UNL     1       2.218   2.334   1.794  1.00  0.00     0.069 S 
ATOM      8  N   UNL     1       1.036   1.248   1.397  1.00  0.00    -0.171 NA
ATOM      9  C   UNL     1       1.570   0.368   0.531  1.00  0.00     0.129 A 
ATOM     10  C   UNL     1       0.906  -0.733  -0.103  1.00  0.00     0.089 A 
ENDROOT
BRANCH  10  11
ATOM     11  N   UNL     1      -0.473  -1.036  -0.030  1.00  0.00    -0.323 N 
ATOM     12  C   UNL     1      -1.480  -0.133   0.052  1.00  0.00     0.196 C 
ATOM     13  H   UNL     1      -0.661  -1.972   0.297  1.00  0.00     0.170 HD
ATOM     14  N   UNL     1      -1.467   1.129  -0.271  1.00  0.00    -0.251 NA
ATOM     15  N   UNL     1      -2.678  -0.663   0.448  1.00  0.00    -0.354 N 
ATOM     16  C   UNL     1      -2.838   1.605   0.037  1.00  0.00     0.167 C 
ATOM     17  C   UNL     1      -3.690   0.351   0.225  1.00  0.00     0.139 C 
ATOM     18  H   UNL     1      -2.896  -1.563   0.040  1.00  0.00     0.163 HD
ENDBRANCH  10  11
TORSDOF 1
