REMARK SMILES Cc1csc2nc([C@H](C)Nc3ncnc4[nH]cnc34)c(-c3cccc(F)c3)c(=O)n12
REMARK SMILES IDX 9 1 8 2 10 3 11 5 19 6 12 7 18 8 15 9 13 10 17 11 16 12
REMARK SMILES IDX 14 13 7 15 20 16 6 17 28 18 5 19 29 20 30 21 4 22 2 23 3 24
REMARK SMILES IDX 1 25 21 26 22 27 27 28 23 29 25 30 24 31 26 32
REMARK H PARENT 10 4 16 14
REMARK Flexibility Score: inf
ROOT
ATOM      1  C   UNL     1      -1.252   0.313   2.350  1.00  0.00     0.038 C 
ATOM      2  C   UNL     1      -0.749   0.300   0.901  1.00  0.00     0.127 C 
ENDROOT
BRANCH   2   3
ATOM      3  N   UNL     1      -1.659  -0.445   0.038  1.00  0.00    -0.360 N 
ATOM      4  H   UNL     1      -1.769  -1.424   0.300  1.00  0.00     0.162 HD
BRANCH   3   5
ATOM      5  C   UNL     1      -2.878   0.142  -0.282  1.00  0.00     0.158 A 
ATOM      6  C   UNL     1      -4.025  -0.632  -0.543  1.00  0.00     0.150 A 
ATOM      7  N   UNL     1      -2.999   1.494  -0.372  1.00  0.00    -0.217 NA
ATOM      8  N   UNL     1      -4.256  -1.995  -0.529  1.00  0.00    -0.231 NA
ATOM      9  C   UNL     1      -5.180   0.053  -0.875  1.00  0.00     0.162 A 
ATOM     10  C   UNL     1      -4.195   2.022  -0.715  1.00  0.00     0.226 A 
ATOM     11  C   UNL     1      -5.525  -2.125  -0.856  1.00  0.00     0.199 A 
ATOM     12  N   UNL     1      -6.122  -0.914  -1.075  1.00  0.00    -0.329 N 
ATOM     13  N   UNL     1      -5.349   1.377  -0.983  1.00  0.00    -0.217 NA
ATOM     14  H   UNL     1      -7.082  -0.746  -1.336  1.00  0.00     0.169 HD
ENDBRANCH   3   5
ENDBRANCH   2   3
BRANCH   2  15
ATOM     15  C   UNL     1       0.616  -0.405   0.791  1.00  0.00     0.079 C 
ATOM     16  C   UNL     1       1.687   0.154   0.179  1.00  0.00     0.071 C 
ATOM     17  N   UNL     1       0.637  -1.673   1.350  1.00  0.00    -0.222 NA
ATOM     18  C   UNL     1       2.969  -0.631   0.133  1.00  0.00     0.266 C 
ATOM     19  C   UNL     1       1.741  -2.326   1.259  1.00  0.00     0.197 C 
ATOM     20  O   UNL     1       3.977  -0.130  -0.365  1.00  0.00    -0.268 OA
ATOM     21  N   UNL     1       2.910  -1.893   0.682  1.00  0.00    -0.255 N 
ATOM     22  S   UNL     1       1.953  -3.946   1.895  1.00  0.00    -0.105 SA
ATOM     23  C   UNL     1       3.948  -2.821   0.742  1.00  0.00     0.036 C 
ATOM     24  C   UNL     1       3.602  -3.965   1.353  1.00  0.00     0.090 C 
ATOM     25  C   UNL     1       5.300  -2.550   0.172  1.00  0.00     0.066 C 
BRANCH  16  26
ATOM     26  C   UNL     1       1.649   1.488  -0.452  1.00  0.00    -0.008 A 
ATOM     27  C   UNL     1       2.313   2.570   0.145  1.00  0.00     0.009 A 
ATOM     28  C   UNL     1       0.954   1.688  -1.652  1.00  0.00     0.048 A 
ATOM     29  C   UNL     1       2.278   3.837  -0.446  1.00  0.00     0.004 A 
ATOM     30  C   UNL     1       0.926   2.953  -2.229  1.00  0.00     0.123 A 
ATOM     31  C   UNL     1       1.580   4.028  -1.637  1.00  0.00     0.039 A 
ATOM     32  F   UNL     1       0.258   3.142  -3.375  1.00  0.00    -0.207 F 
ENDBRANCH  16  26
ENDBRANCH   2  15
TORSDOF 4
