REMARK SMILES C1N2CN3CN1CN(C2)C3
REMARK SMILES IDX 1 1 6 2 5 3 4 4 3 5 2 6 9 7 8 8 7 9 10 10
REMARK H PARENT
REMARK Flexibility Score: inf
ROOT
ATOM      1  C   UNL     1       1.124  -1.237  -0.142  1.00  0.00     0.176 C 
ATOM      2  N   UNL     1       0.135  -1.128   0.922  1.00  0.00    -0.264 NA
ATOM      3  C   UNL     1       0.342   0.123   1.638  1.00  0.00     0.176 C 
ATOM      4  N   UNL     1       0.209   1.252   0.728  1.00  0.00    -0.264 NA
ATOM      5  C   UNL     1       1.197   1.126  -0.335  1.00  0.00     0.176 C 
ATOM      6  N   UNL     1       0.997  -0.118  -1.065  1.00  0.00    -0.264 NA
ATOM      7  C   UNL     1      -0.342  -0.123  -1.638  1.00  0.00     0.176 C 
ATOM      8  N   UNL     1      -1.341  -0.006  -0.585  1.00  0.00    -0.264 NA
ATOM      9  C   UNL     1      -1.197  -1.126   0.335  1.00  0.00     0.176 C 
ATOM     10  C   UNL     1      -1.124   1.237   0.142  1.00  0.00     0.176 C 
ENDROOT
TORSDOF 0
