REMARK SMILES Nc1ccn([C@@H]2CS[C@H](CO)O2)c(=O)n1
REMARK SMILES IDX 6 1 7 2 8 3 9 4 12 5 5 6 1 7 2 8 3 11 15 12 4 13 13 14 14 15
REMARK SMILES IDX 10 16 11 17
REMARK H PARENT 1 9 1 10 11 18
REMARK Flexibility Score: inf
ROOT
ATOM      1  C   UNL     1      -0.474  -1.088   0.218  1.00  0.00     0.235 C 
ATOM      2  C   UNL     1      -1.157  -1.503  -1.090  1.00  0.00     0.127 C 
ATOM      3  S   UNL     1      -2.861  -1.691  -0.569  1.00  0.00    -0.123 SA
ATOM      4  C   UNL     1      -2.674  -0.339   0.630  1.00  0.00     0.203 C 
ATOM      5  O   UNL     1      -1.291  -0.200   0.991  1.00  0.00    -0.341 OA
ENDROOT
BRANCH   1   6
ATOM      6  N   UNL     1       0.846  -0.485   0.052  1.00  0.00    -0.271 N 
ATOM      7  N   UNL     1       4.459   1.298  -0.446  1.00  0.00    -0.383 N 
ATOM      8  C   UNL     1       3.246   0.693  -0.266  1.00  0.00     0.130 C 
ATOM      9  H   UNL     1       4.356   2.237  -0.823  1.00  0.00     0.158 HD
ATOM     10  H   UNL     1       5.107   1.260   0.331  1.00  0.00     0.158 HD
ATOM     11  C   UNL     1       3.157  -0.539   0.538  1.00  0.00     0.065 C 
ATOM     12  N   UNL     1       2.220   1.254  -0.824  1.00  0.00    -0.176 NA
ATOM     13  C   UNL     1       1.941  -1.070   0.651  1.00  0.00     0.097 C 
ATOM     14  C   UNL     1       0.968   0.704  -0.676  1.00  0.00     0.351 C 
ATOM     15  O   UNL     1      -0.008   1.250  -1.187  1.00  0.00    -0.246 OA
ENDBRANCH   1   6
BRANCH   4  16
ATOM     16  C   UNL     1      -3.175   1.003   0.066  1.00  0.00     0.199 C 
BRANCH  16  17
ATOM     17  O   UNL     1      -4.597   1.035  -0.037  1.00  0.00    -0.393 OA
ATOM     18  H   UNL     1      -4.822   1.859  -0.505  1.00  0.00     0.210 HD
ENDBRANCH  16  17
ENDBRANCH   4  16
TORSDOF 3
