REMARK SMILES CNS(=O)(=O)CCc1ccc2[nH]cc(C3CCN(C)CC3)c2c1
REMARK SMILES IDX 6 1 3 2 4 3 5 4 2 5 1 6 7 8 8 9 9 10 23 11 10 12 22 13 11 14
REMARK SMILES IDX 14 15 12 16 13 17 15 19 16 20 21 21 17 22 20 23 18 24 19 25
REMARK H PARENT 2 7 12 18
REMARK Flexibility Score: inf
ROOT
ATOM      1  C   UNL     1       3.962  -0.310  -0.180  1.00  0.00     0.158 C 
ENDROOT
BRANCH   1   2
ATOM      2  S   UNL     1       5.327  -1.140  -0.978  1.00  0.00     0.211 S 
ATOM      3  O   UNL     1       6.384  -1.331  -0.011  1.00  0.00    -0.212 OA
ATOM      4  O   UNL     1       4.796  -2.235  -1.759  1.00  0.00    -0.212 OA
BRANCH   2   5
ATOM      5  N   UNL     1       5.841   0.002  -2.088  1.00  0.00    -0.218 NA
ATOM      6  C   UNL     1       6.384   1.272  -1.627  1.00  0.00     0.120 C 
ATOM      7  H   UNL     1       5.337  -0.015  -2.975  1.00  0.00     0.140 HD
ENDBRANCH   2   5
ENDBRANCH   1   2
BRANCH   1   8
ATOM      8  C   UNL     1       3.297  -1.237   0.826  1.00  0.00     0.053 C 
BRANCH   8   9
ATOM      9  C   UNL     1       2.150  -0.544   1.521  1.00  0.00    -0.046 A 
ATOM     10  C   UNL     1       2.361   0.138   2.723  1.00  0.00     0.006 A 
ATOM     11  C   UNL     1       0.869  -0.553   0.940  1.00  0.00     0.014 A 
ATOM     12  C   UNL     1       1.320   0.810   3.370  1.00  0.00     0.027 A 
ATOM     13  C   UNL     1      -0.200   0.119   1.572  1.00  0.00     0.003 A 
ATOM     14  C   UNL     1       0.056   0.783   2.771  1.00  0.00     0.046 A 
ATOM     15  C   UNL     1      -1.590   0.302   1.263  1.00  0.00    -0.019 A 
ATOM     16  N   UNL     1      -1.128   1.346   3.182  1.00  0.00    -0.361 N 
ATOM     17  C   UNL     1      -2.122   1.068   2.284  1.00  0.00     0.087 A 
ATOM     18  H   UNL     1      -1.243   1.884   4.030  1.00  0.00     0.166 HD
BRANCH  15  19
ATOM     19  C   UNL     1      -2.326  -0.238   0.060  1.00  0.00     0.024 C 
ATOM     20  C   UNL     1      -2.892   0.877  -0.840  1.00  0.00     0.024 C 
ATOM     21  C   UNL     1      -3.408  -1.256   0.461  1.00  0.00     0.024 C 
ATOM     22  C   UNL     1      -4.394   1.065  -0.637  1.00  0.00     0.085 C 
ATOM     23  C   UNL     1      -4.443  -1.399  -0.651  1.00  0.00     0.085 C 
ATOM     24  N   UNL     1      -5.183  -0.150  -0.878  1.00  0.00    -0.306 NA
ATOM     25  C   UNL     1      -5.809  -0.150  -2.198  1.00  0.00     0.105 C 
ENDBRANCH  15  19
ENDBRANCH   8   9
ENDBRANCH   1   8
TORSDOF 5
