REMARK SMILES O=C(NN1C(=O)[C@@H]2[C@@H]3C=C[C@@H]([C@H]4C[C@@H]34)[C@@H]2C1=O)c1ccc(C(F)(F)F)cc1
REMARK SMILES IDX 18 1 19 2 20 3 21 4 26 5 27 6 2 7 1 8 3 9 4 11 5 12 16 13
REMARK SMILES IDX 6 14 7 15 15 16 17 17 8 18 11 19 9 20 14 21 10 22 12 23
REMARK SMILES IDX 13 24 22 25 23 26 24 27 25 28
REMARK H PARENT 3 10
REMARK Flexibility Score: inf
ROOT
ATOM      1  C   UNL     1       3.251   0.164  -0.343  1.00  0.00     0.041 A 
ATOM      2  C   UNL     1       4.166  -0.269  -1.309  1.00  0.00     0.014 A 
ATOM      3  C   UNL     1       5.500  -0.501  -0.963  1.00  0.00     0.014 A 
ATOM      4  C   UNL     1       5.939  -0.300   0.354  1.00  0.00     0.056 A 
ATOM      5  C   UNL     1       5.021   0.159   1.313  1.00  0.00     0.014 A 
ATOM      6  C   UNL     1       3.685   0.390   0.969  1.00  0.00     0.014 A 
ENDROOT
BRANCH   1   7
ATOM      7  C   UNL     1       1.840   0.399  -0.757  1.00  0.00     0.270 C 
ATOM      8  O   UNL     1       1.575   0.672  -1.923  1.00  0.00    -0.267 OA
ATOM      9  N   UNL     1       0.888   0.245   0.234  1.00  0.00    -0.254 N 
ATOM     10  H   UNL     1       1.090  -0.328   1.045  1.00  0.00     0.192 HD
BRANCH   9  11
ATOM     11  N   UNL     1      -0.438   0.244  -0.181  1.00  0.00    -0.187 N 
ATOM     12  C   UNL     1      -1.211   1.378  -0.173  1.00  0.00     0.252 C 
ATOM     13  C   UNL     1      -1.099  -0.920  -0.479  1.00  0.00     0.252 C 
ATOM     14  O   UNL     1      -0.904   2.495   0.220  1.00  0.00    -0.272 OA
ATOM     15  C   UNL     1      -2.566   0.998  -0.711  1.00  0.00     0.101 C 
ATOM     16  C   UNL     1      -2.490  -0.550  -0.918  1.00  0.00     0.101 C 
ATOM     17  O   UNL     1      -0.668  -2.060  -0.377  1.00  0.00    -0.272 OA
ATOM     18  C   UNL     1      -3.730   1.334   0.265  1.00  0.00     0.028 C 
ATOM     19  C   UNL     1      -3.604  -1.242  -0.082  1.00  0.00     0.028 C 
ATOM     20  C   UNL     1      -3.476   0.539   1.545  1.00  0.00    -0.026 C 
ATOM     21  C   UNL     1      -4.997   0.823  -0.452  1.00  0.00     0.001 C 
ATOM     22  C   UNL     1      -3.412  -0.794   1.366  1.00  0.00    -0.026 C 
ATOM     23  C   UNL     1      -4.923  -0.684  -0.655  1.00  0.00     0.001 C 
ATOM     24  C   UNL     1      -6.039  -0.080   0.168  1.00  0.00     0.009 C 
ENDBRANCH   9  11
ENDBRANCH   1   7
BRANCH   4  25
ATOM     25  C   UNL     1       7.387  -0.525   0.724  1.00  0.00     0.416 C 
ATOM     26  F   UNL     1       7.546  -0.933   2.014  1.00  0.00    -0.166 F 
ATOM     27  F   UNL     1       8.136   0.603   0.593  1.00  0.00    -0.166 F 
ATOM     28  F   UNL     1       7.994  -1.473  -0.042  1.00  0.00    -0.166 F 
ENDBRANCH   4  25
TORSDOF 3
