REMARK SMILES Cc1nc(C#Cc2ccc(-c3cc(F)cc(C#N)c3)nc2)cs1
REMARK SMILES IDX 7 1 8 2 9 3 10 4 20 5 21 6 6 7 5 8 4 9 1 10 2 11 3 12 23 13
REMARK SMILES IDX 22 14 11 15 19 16 12 17 16 18 13 19 15 20 14 21 17 22 18 23
REMARK H PARENT
REMARK Flexibility Score: inf
ROOT
ATOM      1  C   UNL     1      -0.621  -0.208   0.377  1.00  0.00     0.043 A 
ATOM      2  C   UNL     1       0.023   0.667  -0.490  1.00  0.00     0.021 A 
ATOM      3  C   UNL     1       1.419   0.682  -0.537  1.00  0.00     0.030 A 
ATOM      4  C   UNL     1       2.144  -0.184   0.284  1.00  0.00     0.070 A 
ATOM      5  N   UNL     1       1.522  -1.035   1.140  1.00  0.00    -0.255 NA
ATOM      6  C   UNL     1       0.166  -1.031   1.166  1.00  0.00     0.129 A 
ENDROOT
BRANCH   1   7
ATOM      7  C   UNL     1      -2.046  -0.253   0.450  1.00  0.00    -0.058 C 
ATOM      8  C   UNL     1      -3.246  -0.281   0.503  1.00  0.00    -0.040 C 
BRANCH   8   9
ATOM      9  C   UNL     1      -4.669  -0.304   0.557  1.00  0.00     0.124 A 
ATOM     10  C   UNL     1      -7.706   1.630   0.058  1.00  0.00     0.079 C 
ATOM     11  C   UNL     1      -6.651   0.618   0.336  1.00  0.00     0.091 A 
ATOM     12  N   UNL     1      -5.358   0.841   0.225  1.00  0.00    -0.233 NA
ATOM     13  S   UNL     1      -7.093  -0.969   0.839  1.00  0.00    -0.126 S 
ATOM     14  C   UNL     1      -5.432  -1.391   0.917  1.00  0.00     0.104 A 
ENDBRANCH   8   9
ENDBRANCH   1   7
BRANCH   4  15
ATOM     15  C   UNL     1       3.620  -0.237   0.298  1.00  0.00     0.004 A 
ATOM     16  C   UNL     1       4.390  -0.009  -0.860  1.00  0.00     0.030 A 
ATOM     17  C   UNL     1       4.312  -0.537   1.485  1.00  0.00     0.049 A 
ATOM     18  C   UNL     1       5.793  -0.067  -0.828  1.00  0.00     0.056 A 
ATOM     19  C   UNL     1       5.702  -0.591   1.510  1.00  0.00     0.125 A 
ATOM     20  C   UNL     1       6.451  -0.356   0.367  1.00  0.00     0.058 A 
ATOM     21  F   UNL     1       6.330  -0.872   2.660  1.00  0.00    -0.207 F 
BRANCH  18  22
ATOM     22  C   UNL     1       6.547   0.169  -2.024  1.00  0.00     0.099 C 
ATOM     23  N   UNL     1       7.150   0.365  -2.996  1.00  0.00    -0.192 NA
ENDBRANCH  18  22
ENDBRANCH   4  15
TORSDOF 4
