REMARK SMILES CCOC(=O)c1cncn1[C@H](C)c1ccccc1
REMARK SMILES IDX 6 1 7 2 8 3 9 4 10 5 4 6 5 7 3 8 2 9 1 10 11 11 12 12 13 13
REMARK SMILES IDX 14 14 18 15 15 16 17 17 16 18
REMARK H PARENT
REMARK Flexibility Score: inf
ROOT
ATOM      1  C   UNL     1       0.945  -1.213   0.292  1.00  0.00     0.147 A 
ATOM      2  C   UNL     1       1.260  -2.478  -0.176  1.00  0.00     0.146 A 
ATOM      3  N   UNL     1       0.211  -3.344  -0.053  1.00  0.00    -0.244 NA
ATOM      4  C   UNL     1      -0.755  -2.631   0.472  1.00  0.00     0.200 A 
ATOM      5  N   UNL     1      -0.372  -1.335   0.707  1.00  0.00    -0.318 N 
ENDROOT
BRANCH   1   6
ATOM      6  C   UNL     1       1.775  -0.036   0.339  1.00  0.00     0.356 C 
ATOM      7  O   UNL     1       1.474   1.039   0.840  1.00  0.00    -0.244 OA
BRANCH   6   8
ATOM      8  O   UNL     1       2.975  -0.295  -0.255  1.00  0.00    -0.461 OA
BRANCH   8   9
ATOM      9  C   UNL     1       3.881   0.814  -0.268  1.00  0.00     0.230 C 
ATOM     10  C   UNL     1       5.154   0.376  -0.964  1.00  0.00     0.049 C 
ENDBRANCH   8   9
ENDBRANCH   6   8
ENDBRANCH   1   6
BRANCH   5  11
ATOM     11  C   UNL     1      -1.224  -0.289   1.283  1.00  0.00     0.116 C 
ATOM     12  C   UNL     1      -2.198  -0.801   2.355  1.00  0.00     0.037 C 
BRANCH  11  13
ATOM     13  C   UNL     1      -1.940   0.486   0.187  1.00  0.00    -0.025 A 
ATOM     14  C   UNL     1      -2.933  -0.103  -0.614  1.00  0.00     0.006 A 
ATOM     15  C   UNL     1      -1.610   1.832  -0.044  1.00  0.00     0.006 A 
ATOM     16  C   UNL     1      -3.574   0.633  -1.613  1.00  0.00     0.000 A 
ATOM     17  C   UNL     1      -2.252   2.565  -1.043  1.00  0.00     0.000 A 
ATOM     18  C   UNL     1      -3.234   1.966  -1.827  1.00  0.00     0.000 A 
ENDBRANCH  11  13
ENDBRANCH   5  11
TORSDOF 5
