REMARK SMILES CCCCN1CCCC[C@H]1C(=O)Nc1c(C)cccc1C
REMARK SMILES IDX 5 1 6 2 7 3 8 4 9 5 10 6 4 7 3 8 2 9 1 10 11 11 12 12 13 13
REMARK SMILES IDX 14 15 15 16 20 17 16 18 17 19 19 20 21 21 18 22
REMARK H PARENT 13 14
REMARK Flexibility Score: inf
ROOT
ATOM      1  N   UNL     1       1.708  -0.720  -0.825  1.00  0.00    -0.292 NA
ATOM      2  C   UNL     1       2.449  -1.817  -0.196  1.00  0.00     0.085 C 
ATOM      3  C   UNL     1       2.799  -2.883  -1.243  1.00  0.00     0.016 C 
ATOM      4  C   UNL     1       1.731  -3.044  -2.324  1.00  0.00     0.003 C 
ATOM      5  C   UNL     1       0.363  -2.639  -1.796  1.00  0.00     0.029 C 
ATOM      6  C   UNL     1       0.361  -1.183  -1.281  1.00  0.00     0.147 C 
ENDROOT
BRANCH   1   7
ATOM      7  C   UNL     1       1.667   0.501  -0.010  1.00  0.00     0.085 C 
BRANCH   7   8
ATOM      8  C   UNL     1       3.018   1.228   0.032  1.00  0.00     0.015 C 
BRANCH   8   9
ATOM      9  C   UNL     1       2.901   2.560   0.777  1.00  0.00    -0.002 C 
ATOM     10  C   UNL     1       4.233   3.292   0.825  1.00  0.00     0.004 C 
ENDBRANCH   8   9
ENDBRANCH   7   8
ENDBRANCH   1   7
BRANCH   6  11
ATOM     11  C   UNL     1      -0.723  -1.061  -0.175  1.00  0.00     0.241 C 
ATOM     12  O   UNL     1      -0.716  -1.770   0.828  1.00  0.00    -0.273 OA
ATOM     13  N   UNL     1      -1.627  -0.037  -0.436  1.00  0.00    -0.324 N 
ATOM     14  H   UNL     1      -1.259   0.694  -1.029  1.00  0.00     0.170 HD
BRANCH  13  15
ATOM     15  C   UNL     1      -2.731   0.323   0.376  1.00  0.00     0.047 A 
ATOM     16  C   UNL     1      -2.996   1.706   0.542  1.00  0.00    -0.027 A 
ATOM     17  C   UNL     1      -3.599  -0.623   0.965  1.00  0.00    -0.027 A 
ATOM     18  C   UNL     1      -2.142   2.775  -0.090  1.00  0.00     0.046 C 
ATOM     19  C   UNL     1      -4.066   2.118   1.353  1.00  0.00     0.005 A 
ATOM     20  C   UNL     1      -4.645  -0.172   1.793  1.00  0.00     0.005 A 
ATOM     21  C   UNL     1      -3.521  -2.109   0.737  1.00  0.00     0.046 C 
ATOM     22  C   UNL     1      -4.876   1.185   1.987  1.00  0.00     0.001 A 
ENDBRANCH  13  15
ENDBRANCH   6  11
TORSDOF 5
