REMARK SMILES CCCS(=O)(=O)N[C@H]1C[C@@H](N(C)c2ncnc3[nH]ccc23)C1
REMARK SMILES IDX 7 1 4 3 5 4 6 5 3 6 2 7 1 8 8 9 22 10 9 11 10 12 11 13 12 14
REMARK SMILES IDX 13 15 14 16 21 17 15 18 17 19 20 20 16 21 18 22 19 23
REMARK H PARENT 7 2 18 24
REMARK Flexibility Score: inf
ROOT
ATOM      1  N   UNL     1       2.315  -0.330  -0.155  1.00  0.00    -0.212 NA
ATOM      2  H   UNL     1       2.149   0.626   0.174  1.00  0.00     0.141 HD
ENDROOT
BRANCH   1   3
ATOM      3  S   UNL     1       3.295  -1.102   0.990  1.00  0.00     0.211 S 
ATOM      4  O   UNL     1       2.925  -2.498   1.030  1.00  0.00    -0.212 OA
ATOM      5  O   UNL     1       3.256  -0.268   2.170  1.00  0.00    -0.212 OA
BRANCH   3   6
ATOM      6  C   UNL     1       4.910  -0.966   0.232  1.00  0.00     0.153 C 
BRANCH   6   7
ATOM      7  C   UNL     1       5.346   0.476   0.010  1.00  0.00     0.014 C 
ATOM      8  C   UNL     1       6.739   0.544  -0.594  1.00  0.00     0.005 C 
ENDBRANCH   6   7
ENDBRANCH   3   6
ENDBRANCH   1   3
BRANCH   1   9
ATOM      9  C   UNL     1       1.079  -0.965  -0.714  1.00  0.00     0.073 C 
ATOM     10  C   UNL     1      -0.178  -0.981   0.185  1.00  0.00     0.045 C 
ATOM     11  C   UNL     1       0.253  -0.116  -1.709  1.00  0.00     0.045 C 
ATOM     12  C   UNL     1      -1.012  -0.779  -1.108  1.00  0.00     0.086 C 
BRANCH  12  13
ATOM     13  N   UNL     1      -2.112   0.152  -0.945  1.00  0.00    -0.356 N 
ATOM     14  C   UNL     1      -2.738   0.569  -2.208  1.00  0.00     0.145 C 
BRANCH  13  15
ATOM     15  C   UNL     1      -3.147  -0.172  -0.024  1.00  0.00     0.141 A 
ATOM     16  N   UNL     1      -3.340  -1.470   0.332  1.00  0.00    -0.219 NA
ATOM     17  C   UNL     1      -3.970   0.799   0.585  1.00  0.00     0.061 A 
ATOM     18  C   UNL     1      -4.314  -1.769   1.214  1.00  0.00     0.226 A 
ATOM     19  C   UNL     1      -4.931   0.340   1.472  1.00  0.00     0.142 A 
ATOM     20  C   UNL     1      -4.086   2.220   0.565  1.00  0.00     0.033 A 
ATOM     21  N   UNL     1      -5.167  -0.931   1.825  1.00  0.00    -0.218 NA
ATOM     22  N   UNL     1      -5.621   1.418   1.954  1.00  0.00    -0.346 N 
ATOM     23  C   UNL     1      -5.117   2.572   1.412  1.00  0.00     0.085 A 
ATOM     24  H   UNL     1      -6.375   1.347   2.623  1.00  0.00     0.167 HD
ENDBRANCH  13  15
ENDBRANCH  12  13
ENDBRANCH   1   9
TORSDOF 6
