REMARK SMILES NC(=O)[C@@H]1CC[C@@H]2CN1C(=O)N2OS(=O)(=O)O
REMARK SMILES IDX 13 1 12 2 4 3 5 4 9 5 6 6 8 7 10 8 7 9 11 10 2 11 1 12 3 15
REMARK SMILES IDX 14 16 15 17 16 18 17 19
REMARK H PARENT 1 13 1 14 17 20
REMARK Flexibility Score: inf
ROOT
ATOM      1  O   UNL     1       2.618   0.298  -1.259  1.00  0.00    -0.122 OA
ENDROOT
BRANCH   1   2
ATOM      2  N   UNL     1       1.321   0.203  -0.722  1.00  0.00    -0.178 N 
ATOM      3  C   UNL     1      -1.411   0.445   0.596  1.00  0.00     0.176 C 
ATOM      4  C   UNL     1      -1.547   0.462  -0.956  1.00  0.00     0.038 C 
ATOM      5  N   UNL     1      -0.104  -0.083   1.013  1.00  0.00    -0.309 N 
ATOM      6  C   UNL     1      -0.754  -0.656  -1.687  1.00  0.00     0.032 C 
ATOM      7  C   UNL     1       0.196  -1.399   0.451  1.00  0.00     0.150 C 
ATOM      8  C   UNL     1       0.967   0.734   0.518  1.00  0.00     0.346 C 
ATOM      9  C   UNL     1       0.567  -1.015  -0.972  1.00  0.00     0.139 C 
ATOM     10  O   UNL     1       1.487   1.685   1.078  1.00  0.00    -0.246 OA
BRANCH   3  11
ATOM     11  C   UNL     1      -2.620  -0.269   1.241  1.00  0.00     0.240 C 
ATOM     12  N   UNL     1      -3.788   0.445   1.239  1.00  0.00    -0.368 N 
ATOM     13  H   UNL     1      -4.556   0.016   1.742  1.00  0.00     0.159 HD
ATOM     14  H   UNL     1      -3.784   1.456   1.198  1.00  0.00     0.159 HD
ATOM     15  O   UNL     1      -2.610  -1.415   1.676  1.00  0.00    -0.273 OA
ENDBRANCH   3  11
ENDBRANCH   1   2
BRANCH   1  16
ATOM     16  S   UNL     1       3.890   0.253  -0.215  1.00  0.00     0.418 S 
ATOM     17  O   UNL     1       5.092   0.072  -1.000  1.00  0.00    -0.167 OA
ATOM     18  O   UNL     1       3.567  -0.660   0.862  1.00  0.00    -0.167 OA
BRANCH  16  19
ATOM     19  O   UNL     1       3.936   1.741   0.407  1.00  0.00    -0.262 OA
ATOM     20  H   UNL     1       3.082   1.914   0.876  1.00  0.00     0.236 HD
ENDBRANCH  16  19
ENDBRANCH   1  16
TORSDOF 4
