REMARK SMILES O=C(c1ccc(NS(=O)(=O)c2cccc3cccnc23)cc1)N1CCN(CC2CC2)CC1
REMARK SMILES IDX 3 1 4 2 5 3 6 4 21 5 22 6 2 7 1 8 23 9 24 10 32 11 25 12
REMARK SMILES IDX 31 13 26 14 27 15 28 16 29 17 30 18 7 19 8 21 9 22 10 23
REMARK SMILES IDX 11 24 12 25 20 26 13 27 15 28 19 29 14 30 16 31 18 32 17 33
REMARK H PARENT 7 20
REMARK Flexibility Score: inf
ROOT
ATOM      1  C   UNL     1       0.161  -0.640  -0.441  1.00  0.00     0.040 A 
ATOM      2  C   UNL     1       0.887   0.441   0.067  1.00  0.00     0.016 A 
ATOM      3  C   UNL     1       1.990   0.206   0.891  1.00  0.00     0.027 A 
ATOM      4  C   UNL     1       2.381  -1.104   1.185  1.00  0.00     0.049 A 
ATOM      5  C   UNL     1       1.653  -2.179   0.671  1.00  0.00     0.027 A 
ATOM      6  C   UNL     1       0.550  -1.951  -0.155  1.00  0.00     0.016 A 
ENDROOT
BRANCH   1   7
ATOM      7  C   UNL     1      -0.987  -0.368  -1.331  1.00  0.00     0.253 C 
ATOM      8  O   UNL     1      -0.755   0.212  -2.388  1.00  0.00    -0.269 OA
ATOM      9  N   UNL     1      -2.253  -0.765  -0.920  1.00  0.00    -0.336 N 
ATOM     10  C   UNL     1      -2.572  -1.260   0.425  1.00  0.00     0.135 C 
ATOM     11  C   UNL     1      -3.401  -0.486  -1.778  1.00  0.00     0.135 C 
ATOM     12  C   UNL     1      -4.088  -1.369   0.689  1.00  0.00     0.106 C 
ATOM     13  C   UNL     1      -4.505   0.305  -1.042  1.00  0.00     0.106 C 
ATOM     14  N   UNL     1      -4.780  -0.118   0.351  1.00  0.00    -0.300 NA
BRANCH  14  15
ATOM     15  C   UNL     1      -6.208  -0.186   0.661  1.00  0.00     0.088 C 
BRANCH  15  16
ATOM     16  C   UNL     1      -6.807   1.192   0.669  1.00  0.00     0.003 C 
ATOM     17  C   UNL     1      -6.505   2.153   1.793  1.00  0.00     0.005 C 
ATOM     18  C   UNL     1      -7.879   1.554   1.668  1.00  0.00     0.005 C 
ENDBRANCH  15  16
ENDBRANCH  14  15
ENDBRANCH   1   7
BRANCH   4  19
ATOM     19  N   UNL     1       3.518  -1.321   2.024  1.00  0.00    -0.280 N 
ATOM     20  H   UNL     1       3.869  -0.483   2.502  1.00  0.00     0.180 HD
BRANCH  19  21
ATOM     21  S   UNL     1       4.880  -2.084   1.338  1.00  0.00     0.264 S 
ATOM     22  O   UNL     1       4.453  -3.326   0.722  1.00  0.00    -0.201 OA
ATOM     23  O   UNL     1       5.928  -2.094   2.337  1.00  0.00    -0.201 OA
BRANCH  21  24
ATOM     24  C   UNL     1       5.381  -0.983   0.046  1.00  0.00     0.114 A 
ATOM     25  C   UNL     1       5.570  -1.503  -1.244  1.00  0.00     0.024 A 
ATOM     26  C   UNL     1       5.573   0.366   0.355  1.00  0.00     0.091 A 
ATOM     27  C   UNL     1       5.972  -0.659  -2.269  1.00  0.00     0.002 A 
ATOM     28  C   UNL     1       5.988   1.203  -0.705  1.00  0.00     0.002 A 
ATOM     29  N   UNL     1       5.357   0.873   1.596  1.00  0.00    -0.255 NA
ATOM     30  C   UNL     1       6.184   0.689  -2.000  1.00  0.00     0.010 A 
ATOM     31  C   UNL     1       6.199   2.563  -0.441  1.00  0.00     0.012 A 
ATOM     32  C   UNL     1       5.589   2.187   1.815  1.00  0.00     0.112 A 
ATOM     33  C   UNL     1       6.003   3.065   0.837  1.00  0.00     0.021 A 
ENDBRANCH  21  24
ENDBRANCH  19  21
ENDBRANCH   4  19
TORSDOF 6
