REMARK SMILES Cn1c(=O)c(C(=O)NCCO)c(O)c2ncc(Cc3ccc(F)cc3)cc21
REMARK SMILES IDX 6 1 7 2 8 3 5 5 1 6 2 7 3 8 27 9 4 10 14 11 26 12 12 13
REMARK SMILES IDX 15 14 17 15 16 16 13 17 18 19 19 20 20 21 25 22 21 23 24 24
REMARK SMILES IDX 22 25 23 26 9 27 10 28 11 29
REMARK H PARENT 8 4 13 18 11 30
REMARK Flexibility Score: inf
ROOT
ATOM      1  C   UNL     1       3.820  -1.064  -0.106  1.00  0.00     0.260 C 
ATOM      2  O   UNL     1       4.279  -1.947   0.621  1.00  0.00    -0.269 OA
ATOM      3  N   UNL     1       4.573  -0.449  -1.068  1.00  0.00    -0.349 N 
ATOM      4  H   UNL     1       4.145   0.287  -1.631  1.00  0.00     0.163 HD
ENDROOT
BRANCH   1   5
ATOM      5  C   UNL     1       2.394  -0.614   0.030  1.00  0.00     0.149 C 
ATOM      6  C   UNL     1      -0.081   1.889  -1.456  1.00  0.00     0.153 C 
ATOM      7  N   UNL     1       0.487   0.828  -0.633  1.00  0.00    -0.309 N 
ATOM      8  C   UNL     1       1.820   0.477  -0.820  1.00  0.00     0.267 C 
ATOM      9  C   UNL     1      -0.327   0.180   0.338  1.00  0.00     0.074 A 
ATOM     10  O   UNL     1       2.536   1.038  -1.653  1.00  0.00    -0.268 OA
ATOM     11  C   UNL     1       0.211  -0.833   1.130  1.00  0.00     0.129 A 
ATOM     12  C   UNL     1      -1.672   0.514   0.544  1.00  0.00     0.034 A 
ATOM     13  C   UNL     1       1.622  -1.220   0.955  1.00  0.00     0.161 C 
ATOM     14  N   UNL     1      -0.506  -1.498   2.071  1.00  0.00    -0.250 NA
ATOM     15  C   UNL     1      -2.440  -0.174   1.494  1.00  0.00    -0.023 A 
ATOM     16  C   UNL     1      -1.800  -1.158   2.232  1.00  0.00     0.116 A 
BRANCH  13  17
ATOM     17  O   UNL     1       2.056  -2.232   1.801  1.00  0.00    -0.505 OA
ATOM     18  H   UNL     1       2.999  -2.427   1.612  1.00  0.00     0.293 HD
ENDBRANCH  13  17
BRANCH  15  19
ATOM     19  C   UNL     1      -3.887   0.160   1.758  1.00  0.00     0.072 C 
BRANCH  19  20
ATOM     20  C   UNL     1      -4.741   0.312   0.517  1.00  0.00    -0.043 A 
ATOM     21  C   UNL     1      -5.380   1.531   0.242  1.00  0.00     0.007 A 
ATOM     22  C   UNL     1      -4.918  -0.766  -0.366  1.00  0.00     0.007 A 
ATOM     23  C   UNL     1      -6.171   1.672  -0.898  1.00  0.00     0.039 A 
ATOM     24  C   UNL     1      -5.705  -0.621  -1.509  1.00  0.00     0.039 A 
ATOM     25  C   UNL     1      -6.324   0.596  -1.764  1.00  0.00     0.123 A 
ATOM     26  F   UNL     1      -7.079   0.735  -2.861  1.00  0.00    -0.207 F 
ENDBRANCH  19  20
ENDBRANCH  15  19
ENDBRANCH   1   5
BRANCH   3  27
ATOM     27  C   UNL     1       5.962  -0.785  -1.312  1.00  0.00     0.144 C 
BRANCH  27  28
ATOM     28  C   UNL     1       6.907  -0.204  -0.263  1.00  0.00     0.177 C 
BRANCH  28  29
ATOM     29  O   UNL     1       8.258  -0.413  -0.659  1.00  0.00    -0.395 OA
ATOM     30  H   UNL     1       8.818  -0.074   0.061  1.00  0.00     0.210 HD
ENDBRANCH  28  29
ENDBRANCH  27  28
ENDBRANCH   3  27
TORSDOF 7
