REMARK SMILES O=C(c1ccc(F)cc1)C1CCN(CCn2c(=O)[nH]c3ccccc3c2=O)CC1
REMARK SMILES IDX 10 1 11 2 12 3 13 4 28 5 29 6 2 7 1 8 3 9 4 10 9 11 5 12
REMARK SMILES IDX 8 13 6 14 7 15 14 16 15 17 16 18 17 19 26 20 18 21 19 22
REMARK SMILES IDX 25 23 27 24 20 25 24 27 21 28 23 29 22 30
REMARK H PARENT 19 26
REMARK Flexibility Score: inf
ROOT
ATOM      1  C   UNL     1       3.078  -0.327  -0.753  1.00  0.00     0.064 C 
ATOM      2  C   UNL     1       2.445  -1.074   0.430  1.00  0.00     0.027 C 
ATOM      3  C   UNL     1       0.981  -0.684   0.630  1.00  0.00     0.085 C 
ATOM      4  N   UNL     1       0.158  -1.017  -0.544  1.00  0.00    -0.302 NA
ATOM      5  C   UNL     1       0.838  -0.762  -1.824  1.00  0.00     0.085 C 
ATOM      6  C   UNL     1       2.010   0.210  -1.720  1.00  0.00     0.027 C 
ENDROOT
BRANCH   1   7
ATOM      7  C   UNL     1       3.976   0.801  -0.247  1.00  0.00     0.166 C 
ATOM      8  O   UNL     1       3.563   1.953  -0.120  1.00  0.00    -0.294 OA
BRANCH   7   9
ATOM      9  C   UNL     1       5.398   0.507   0.127  1.00  0.00     0.018 A 
ATOM     10  C   UNL     1       5.902  -0.797   0.236  1.00  0.00     0.015 A 
ATOM     11  C   UNL     1       6.250   1.594   0.386  1.00  0.00     0.015 A 
ATOM     12  C   UNL     1       7.239  -1.005   0.591  1.00  0.00     0.040 A 
ATOM     13  C   UNL     1       7.584   1.382   0.739  1.00  0.00     0.040 A 
ATOM     14  C   UNL     1       8.066   0.084   0.837  1.00  0.00     0.123 A 
ATOM     15  F   UNL     1       9.345  -0.123   1.177  1.00  0.00    -0.207 F 
ENDBRANCH   7   9
ENDBRANCH   1   7
BRANCH   4  16
ATOM     16  C   UNL     1      -1.160  -0.351  -0.496  1.00  0.00     0.106 C 
BRANCH  16  17
ATOM     17  C   UNL     1      -2.049  -0.783   0.689  1.00  0.00     0.146 C 
BRANCH  17  18
ATOM     18  N   UNL     1      -3.350  -0.117   0.658  1.00  0.00    -0.259 N 
ATOM     19  C   UNL     1      -3.448   1.130   1.254  1.00  0.00     0.328 C 
ATOM     20  C   UNL     1      -4.375  -0.720  -0.067  1.00  0.00     0.264 C 
ATOM     21  O   UNL     1      -2.515   1.703   1.813  1.00  0.00    -0.248 OA
ATOM     22  N   UNL     1      -4.666   1.745   1.197  1.00  0.00    -0.307 N 
ATOM     23  C   UNL     1      -5.675  -0.021  -0.086  1.00  0.00     0.064 A 
ATOM     24  O   UNL     1      -4.254  -1.774  -0.688  1.00  0.00    -0.268 OA
ATOM     25  C   UNL     1      -5.779   1.206   0.558  1.00  0.00     0.055 A 
ATOM     26  H   UNL     1      -4.717   2.648   1.650  1.00  0.00     0.171 HD
ATOM     27  C   UNL     1      -6.783  -0.569  -0.740  1.00  0.00     0.016 A 
ATOM     28  C   UNL     1      -6.988   1.901   0.557  1.00  0.00     0.027 A 
ATOM     29  C   UNL     1      -7.995   0.122  -0.741  1.00  0.00     0.001 A 
ATOM     30  C   UNL     1      -8.097   1.354  -0.094  1.00  0.00     0.002 A 
ENDBRANCH  17  18
ENDBRANCH  16  17
ENDBRANCH   4  16
TORSDOF 5
