REMARK SMILES C[C@H](Nc1cc(-c2cnn(C)c2)cc(Nc2cnccn2)n1)c1ccc(F)cc1
REMARK SMILES IDX 4 1 5 2 6 3 13 4 14 5 22 6 3 7 2 9 1 10 23 11 24 12 29 13
REMARK SMILES IDX 25 14 28 15 26 16 27 17 7 18 12 19 8 20 10 21 9 22 11 23
REMARK SMILES IDX 15 24 16 26 17 27 21 28 18 29 20 30 19 31
REMARK H PARENT 3 8 15 25
REMARK Flexibility Score: inf
ROOT
ATOM      1  C   UNL     1       0.026  -0.434  -0.058  1.00  0.00     0.129 A 
ATOM      2  C   UNL     1      -0.472  -1.683  -0.409  1.00  0.00     0.055 A 
ATOM      3  C   UNL     1      -1.826  -1.825  -0.709  1.00  0.00    -0.008 A 
ATOM      4  C   UNL     1      -2.641  -0.696  -0.636  1.00  0.00     0.056 A 
ATOM      5  C   UNL     1      -2.090   0.523  -0.256  1.00  0.00     0.134 A 
ATOM      6  N   UNL     1      -0.774   0.645   0.013  1.00  0.00    -0.214 NA
ENDROOT
BRANCH   1   7
ATOM      7  N   UNL     1       1.392  -0.336   0.258  1.00  0.00    -0.363 N 
ATOM      8  H   UNL     1       1.925  -0.725  -0.516  1.00  0.00     0.162 HD
BRANCH   7   9
ATOM      9  C   UNL     1       1.885   1.000   0.615  1.00  0.00     0.108 C 
ATOM     10  C   UNL     1       1.551   1.337   2.071  1.00  0.00     0.036 C 
BRANCH   9  11
ATOM     11  C   UNL     1       3.397   1.025   0.401  1.00  0.00    -0.026 A 
ATOM     12  C   UNL     1       3.971   1.990  -0.446  1.00  0.00     0.009 A 
ATOM     13  C   UNL     1       4.241   0.094   1.036  1.00  0.00     0.009 A 
ATOM     14  C   UNL     1       5.352   2.022  -0.651  1.00  0.00     0.039 A 
ATOM     15  C   UNL     1       5.621   0.129   0.829  1.00  0.00     0.039 A 
ATOM     16  C   UNL     1       6.163   1.093  -0.012  1.00  0.00     0.123 A 
ATOM     17  F   UNL     1       7.487   1.125  -0.211  1.00  0.00    -0.207 F 
ENDBRANCH   9  11
ENDBRANCH   7   9
ENDBRANCH   1   7
BRANCH   3  18
ATOM     18  C   UNL     1      -2.384  -3.109  -1.094  1.00  0.00     0.020 A 
ATOM     19  C   UNL     1      -1.920  -4.339  -0.674  1.00  0.00     0.117 A 
ATOM     20  C   UNL     1      -3.488  -3.429  -1.920  1.00  0.00     0.143 A 
ATOM     21  N   UNL     1      -2.731  -5.274  -1.249  1.00  0.00    -0.275 N 
ATOM     22  N   UNL     1      -3.699  -4.744  -2.016  1.00  0.00    -0.181 NA
ATOM     23  C   UNL     1      -2.646  -6.707  -1.104  1.00  0.00     0.173 C 
ENDBRANCH   3  18
BRANCH   5  24
ATOM     24  N   UNL     1      -2.936   1.645  -0.204  1.00  0.00    -0.324 N 
ATOM     25  H   UNL     1      -3.811   1.457   0.272  1.00  0.00     0.170 HD
BRANCH  24  26
ATOM     26  C   UNL     1      -2.583   2.967   0.079  1.00  0.00     0.150 A 
ATOM     27  C   UNL     1      -1.388   3.559  -0.334  1.00  0.00     0.158 A 
ATOM     28  N   UNL     1      -3.508   3.697   0.746  1.00  0.00    -0.236 NA
ATOM     29  N   UNL     1      -1.059   4.855  -0.085  1.00  0.00    -0.259 NA
ATOM     30  C   UNL     1      -3.185   4.988   1.000  1.00  0.00     0.133 A 
ATOM     31  C   UNL     1      -1.989   5.554   0.597  1.00  0.00     0.131 A 
ENDBRANCH  24  26
ENDBRANCH   5  24
TORSDOF 6
