REMARK SMILES CC(Oc1ccccc1)C(=O)N[C@@H]1C(=O)N2[C@@H]1SC(C)(C)[C@@H]2C(=O)O
REMARK SMILES IDX 10 1 11 2 12 3 2 5 1 6 3 7 4 8 5 9 9 10 6 11 8 12 7 13 13 14
REMARK SMILES IDX 14 15 17 16 15 17 16 18 18 19 22 20 19 21 20 22 21 23 23 24
REMARK SMILES IDX 24 25 25 26
REMARK H PARENT 12 4 25 27
REMARK Flexibility Score: inf
ROOT
ATOM      1  C   UNL     1       1.394  -0.405  -0.007  1.00  0.00     0.261 C 
ATOM      2  O   UNL     1       1.347  -1.550  -0.450  1.00  0.00    -0.271 OA
ATOM      3  N   UNL     1       0.551   0.582  -0.482  1.00  0.00    -0.339 N 
ATOM      4  H   UNL     1       0.581   1.509  -0.071  1.00  0.00     0.164 HD
ENDROOT
BRANCH   1   5
ATOM      5  C   UNL     1       2.375   0.066   1.085  1.00  0.00     0.258 C 
ATOM      6  C   UNL     1       1.595   0.290   2.381  1.00  0.00     0.064 C 
BRANCH   5   7
ATOM      7  O   UNL     1       3.402  -0.871   1.389  1.00  0.00    -0.481 OA
BRANCH   7   8
ATOM      8  C   UNL     1       4.513  -0.898   0.592  1.00  0.00     0.120 A 
ATOM      9  C   UNL     1       4.657  -0.273  -0.647  1.00  0.00     0.046 A 
ATOM     10  C   UNL     1       5.574  -1.651   1.103  1.00  0.00     0.046 A 
ATOM     11  C   UNL     1       5.858  -0.389  -1.356  1.00  0.00     0.004 A 
ATOM     12  C   UNL     1       6.772  -1.767   0.397  1.00  0.00     0.004 A 
ATOM     13  C   UNL     1       6.915  -1.132  -0.834  1.00  0.00     0.000 A 
ENDBRANCH   7   8
ENDBRANCH   5   7
ENDBRANCH   1   5
BRANCH   3  14
ATOM     14  C   UNL     1      -0.491   0.261  -1.495  1.00  0.00     0.205 C 
ATOM     15  C   UNL     1      -1.498   1.388  -1.812  1.00  0.00     0.250 C 
ATOM     16  C   UNL     1      -1.743  -0.514  -1.014  1.00  0.00     0.176 C 
ATOM     17  O   UNL     1      -1.437   2.578  -2.021  1.00  0.00    -0.272 OA
ATOM     18  N   UNL     1      -2.570   0.567  -1.588  1.00  0.00    -0.311 N 
ATOM     19  S   UNL     1      -2.164  -0.464   0.777  1.00  0.00    -0.125 SA
ATOM     20  C   UNL     1      -3.694   1.062  -0.791  1.00  0.00     0.211 C 
ATOM     21  C   UNL     1      -3.892   0.100   0.397  1.00  0.00     0.044 C 
ATOM     22  C   UNL     1      -4.450   0.818   1.628  1.00  0.00     0.026 C 
ATOM     23  C   UNL     1      -4.740  -1.139   0.078  1.00  0.00     0.026 C 
BRANCH  20  24
ATOM     24  C   UNL     1      -4.930   1.217  -1.666  1.00  0.00     0.327 C 
ATOM     25  O   UNL     1      -5.178   0.635  -2.710  1.00  0.00    -0.250 OA
BRANCH  24  26
ATOM     26  O   UNL     1      -5.827   2.082  -1.148  1.00  0.00    -0.480 OA
ATOM     27  H   UNL     1      -6.548   2.105  -1.814  1.00  0.00     0.296 HD
ENDBRANCH  24  26
ENDBRANCH  20  24
ENDBRANCH   3  14
TORSDOF 6
