REMARK SMILES C[C@@H](Oc1ccc2[nH]nc(/C=C/c3cnn(CCO)c3)c2c1)c1c(Cl)cncc1Cl
REMARK SMILES IDX 11 1 12 2 10 3 4 4 5 5 22 6 6 7 21 8 7 9 8 10 9 11 3 13 2 14
REMARK SMILES IDX 1 15 23 16 24 17 29 18 25 19 26 20 28 21 30 22 27 23 13 24
REMARK SMILES IDX 20 25 14 26 16 27 15 28 17 29 18 30 19 31
REMARK H PARENT 8 12 19 32
REMARK Flexibility Score: inf
ROOT
ATOM      1  C   UNL     1       2.247  -1.482  -0.091  1.00  0.00     0.031 C 
ATOM      2  C   UNL     1       3.568  -1.657  -0.275  1.00  0.00     0.013 C 
ENDROOT
BRANCH   1   3
ATOM      3  C   UNL     1       1.389  -2.397   0.605  1.00  0.00     0.093 A 
ATOM      4  C   UNL     1      -2.307  -1.394   0.865  1.00  0.00     0.121 A 
ATOM      5  C   UNL     1      -2.687  -2.532   1.575  1.00  0.00     0.049 A 
ATOM      6  C   UNL     1      -0.971  -1.229   0.468  1.00  0.00     0.059 A 
ATOM      7  C   UNL     1      -1.754  -3.521   1.919  1.00  0.00     0.032 A 
ATOM      8  C   UNL     1      -0.013  -2.207   0.804  1.00  0.00     0.031 A 
ATOM      9  C   UNL     1      -0.430  -3.322   1.519  1.00  0.00     0.066 A 
ATOM     10  N   UNL     1       0.696  -4.078   1.691  1.00  0.00    -0.277 N 
ATOM     11  N   UNL     1       1.806  -3.547   1.156  1.00  0.00    -0.175 NA
ATOM     12  H   UNL     1       0.774  -4.968   2.168  1.00  0.00     0.190 HD
BRANCH   4  13
ATOM     13  O   UNL     1      -3.125  -0.371   0.472  1.00  0.00    -0.486 OA
BRANCH  13  14
ATOM     14  C   UNL     1      -4.459  -0.279   0.985  1.00  0.00     0.203 C 
ATOM     15  C   UNL     1      -5.439  -1.058   0.104  1.00  0.00     0.058 C 
BRANCH  14  16
ATOM     16  C   UNL     1      -4.856   1.192   1.070  1.00  0.00     0.032 A 
ATOM     17  C   UNL     1      -5.485   1.700   2.225  1.00  0.00     0.067 A 
ATOM     18  C   UNL     1      -4.642   2.106   0.018  1.00  0.00     0.067 A 
ATOM     19  Cl  UNL     1      -5.880   0.728   3.600  1.00  0.00    -0.082 Cl
ATOM     20  C   UNL     1      -5.833   3.050   2.285  1.00  0.00     0.132 A 
ATOM     21  C   UNL     1      -5.031   3.437   0.177  1.00  0.00     0.132 A 
ATOM     22  Cl  UNL     1      -3.937   1.684  -1.502  1.00  0.00    -0.082 Cl
ATOM     23  N   UNL     1      -5.618   3.934   1.288  1.00  0.00    -0.262 NA
ENDBRANCH  14  16
ENDBRANCH  13  14
ENDBRANCH   4  13
ENDBRANCH   1   3
BRANCH   2  24
ATOM     24  C   UNL     1       4.450  -0.773  -0.959  1.00  0.00     0.013 A 
ATOM     25  C   UNL     1       4.150   0.419  -1.581  1.00  0.00     0.116 A 
ATOM     26  C   UNL     1       5.838  -0.934  -1.155  1.00  0.00     0.143 A 
ATOM     27  N   UNL     1       5.329   0.884  -2.094  1.00  0.00    -0.270 N 
ATOM     28  N   UNL     1       6.378   0.077  -1.843  1.00  0.00    -0.181 NA
BRANCH  27  29
ATOM     29  C   UNL     1       5.525   2.102  -2.850  1.00  0.00     0.172 C 
BRANCH  29  30
ATOM     30  C   UNL     1       6.422   3.093  -2.124  1.00  0.00     0.179 C 
BRANCH  30  31
ATOM     31  O   UNL     1       6.467   4.321  -2.849  1.00  0.00    -0.394 OA
ATOM     32  H   UNL     1       7.129   4.882  -2.408  1.00  0.00     0.210 HD
ENDBRANCH  30  31
ENDBRANCH  29  30
ENDBRANCH  27  29
ENDBRANCH   2  24
TORSDOF 8
