REMARK SMILES NC(=O)c1cnccn1
REMARK SMILES IDX 4 1 5 2 6 3 7 4 8 5 9 6 2 7 1 8 3 11
REMARK H PARENT 1 9 1 10
REMARK Flexibility Score: inf
ROOT
ATOM      1  C   UNL     1       0.214  -0.307  -0.064  1.00  0.00     0.146 A 
ATOM      2  C   UNL     1      -0.152   0.951  -0.524  1.00  0.00     0.145 A 
ATOM      3  N   UNL     1      -1.447   1.353  -0.608  1.00  0.00    -0.261 NA
ATOM      4  C   UNL     1      -2.360   0.430  -0.228  1.00  0.00     0.131 A 
ATOM      5  C   UNL     1      -2.000  -0.831   0.221  1.00  0.00     0.132 A 
ATOM      6  N   UNL     1      -0.711  -1.228   0.317  1.00  0.00    -0.248 NA
ENDROOT
BRANCH   1   7
ATOM      7  C   UNL     1       1.648  -0.704   0.023  1.00  0.00     0.268 C 
ATOM      8  N   UNL     1       2.562   0.279   0.325  1.00  0.00    -0.364 N 
ATOM      9  H   UNL     1       2.289   1.131   0.796  1.00  0.00     0.160 HD
ATOM     10  H   UNL     1       3.496  -0.063   0.520  1.00  0.00     0.160 HD
ATOM     11  O   UNL     1       2.027  -1.858  -0.141  1.00  0.00    -0.268 OA
ENDBRANCH   1   7
TORSDOF 1
