REMARK SMILES Nc1c2ccccc2nc2ccccc12
REMARK SMILES IDX 2 1 3 2 4 3 5 4 6 5 7 6 8 7 9 8 10 9 11 10 12 11 13 12 14 13
REMARK SMILES IDX 15 14 1 15
REMARK H PARENT 1 16 1 17
REMARK Flexibility Score: inf
ROOT
ATOM      1  C   UNL     1      -0.093   1.044   0.409  1.00  0.00     0.050 A 
ATOM      2  C   UNL     1      -1.246   0.220   0.275  1.00  0.00     0.024 A 
ATOM      3  C   UNL     1      -2.546   0.571   0.723  1.00  0.00     0.012 A 
ATOM      4  C   UNL     1      -3.638  -0.275   0.530  1.00  0.00     0.001 A 
ATOM      5  C   UNL     1      -3.454  -1.489  -0.111  1.00  0.00     0.002 A 
ATOM      6  C   UNL     1      -2.177  -1.851  -0.542  1.00  0.00     0.029 A 
ATOM      7  C   UNL     1      -1.074  -1.028  -0.354  1.00  0.00     0.073 A 
ATOM      8  N   UNL     1       0.113  -1.476  -0.781  1.00  0.00    -0.248 NA
ATOM      9  C   UNL     1       1.212  -0.742  -0.563  1.00  0.00     0.073 A 
ATOM     10  C   UNL     1       2.431  -1.274  -0.963  1.00  0.00     0.029 A 
ATOM     11  C   UNL     1       3.636  -0.602  -0.759  1.00  0.00     0.002 A 
ATOM     12  C   UNL     1       3.629   0.635  -0.134  1.00  0.00     0.001 A 
ATOM     13  C   UNL     1       2.416   1.192   0.270  1.00  0.00     0.012 A 
ATOM     14  C   UNL     1       1.183   0.523   0.053  1.00  0.00     0.024 A 
ENDROOT
BRANCH   1  15
ATOM     15  N   UNL     1      -0.190   2.301   1.071  1.00  0.00    -0.398 N 
ATOM     16  H   UNL     1       0.545   2.946   0.802  1.00  0.00     0.156 HD
ATOM     17  H   UNL     1      -1.096   2.741   0.952  1.00  0.00     0.156 HD
ENDBRANCH   1  15
TORSDOF 1
