REMARK SMILES COc1ccc(CN(CCN(C)C)c2ccccn2)cc1
REMARK SMILES IDX 8 1 7 2 6 3 3 4 4 5 21 6 5 7 20 8 2 9 1 10 9 11 10 12 11 13
REMARK SMILES IDX 12 14 13 15 14 16 15 17 19 18 16 19 18 20 17 21
REMARK H PARENT
REMARK Flexibility Score: inf
ROOT
ATOM      1  N   UNL     1      -0.380  -1.101  -0.309  1.00  0.00    -0.351 N 
ENDROOT
BRANCH   1   2
ATOM      2  C   UNL     1       0.883  -1.255  -1.054  1.00  0.00     0.153 C 
BRANCH   2   3
ATOM      3  C   UNL     1       1.904  -0.218  -0.622  1.00  0.00    -0.028 A 
ATOM      4  C   UNL     1       3.836   1.673   0.179  1.00  0.00     0.118 A 
ATOM      5  C   UNL     1       3.558   1.469  -1.175  1.00  0.00     0.047 A 
ATOM      6  C   UNL     1       3.150   0.924   1.134  1.00  0.00     0.047 A 
ATOM      7  C   UNL     1       2.603   0.531  -1.576  1.00  0.00     0.009 A 
ATOM      8  C   UNL     1       2.194  -0.017   0.735  1.00  0.00     0.009 A 
BRANCH   4   9
ATOM      9  O   UNL     1       4.790   2.620   0.431  1.00  0.00    -0.497 OA
ATOM     10  C   UNL     1       5.101   2.870   1.795  1.00  0.00     0.278 C 
ENDBRANCH   4   9
ENDBRANCH   2   3
ENDBRANCH   1   2
BRANCH   1  11
ATOM     11  C   UNL     1      -1.189   0.067  -0.742  1.00  0.00     0.134 C 
BRANCH  11  12
ATOM     12  C   UNL     1      -2.235   0.462   0.328  1.00  0.00     0.105 C 
BRANCH  12  13
ATOM     13  N   UNL     1      -2.979   1.711   0.030  1.00  0.00    -0.308 NA
ATOM     14  C   UNL     1      -2.125   2.893   0.165  1.00  0.00     0.105 C 
ATOM     15  C   UNL     1      -4.126   1.827   0.935  1.00  0.00     0.105 C 
ENDBRANCH  12  13
ENDBRANCH  11  12
ENDBRANCH   1  11
BRANCH   1  16
ATOM     16  C   UNL     1      -1.101  -2.319  -0.344  1.00  0.00     0.128 A 
ATOM     17  C   UNL     1      -0.664  -3.377   0.458  1.00  0.00     0.047 A 
ATOM     18  N   UNL     1      -2.193  -2.447  -1.126  1.00  0.00    -0.239 NA
ATOM     19  C   UNL     1      -1.354  -4.587   0.449  1.00  0.00     0.005 A 
ATOM     20  C   UNL     1      -2.850  -3.629  -1.119  1.00  0.00     0.113 A 
ATOM     21  C   UNL     1      -2.472  -4.719  -0.358  1.00  0.00     0.020 A 
ENDBRANCH   1  16
TORSDOF 7
