REMARK SMILES CCC(CO)NC(=O)[C@@H]1C=C2c3cccc4c3c(cn4C)C[C@H]2N(C)C1
REMARK SMILES IDX 3 1 2 2 1 3 4 4 5 5 6 7 7 8 8 10 9 11 10 12 26 13 11 14
REMARK SMILES IDX 24 15 12 16 23 17 25 18 13 19 17 20 22 21 14 22 16 23 18 24
REMARK SMILES IDX 15 25 20 26 19 27 21 28
REMARK H PARENT 5 6 6 9
REMARK Flexibility Score: inf
ROOT
ATOM      1  C   UNL     1       4.882  -0.405  -0.427  1.00  0.00     0.107 C 
ENDROOT
BRANCH   1   2
ATOM      2  C   UNL     1       6.093  -0.273   0.511  1.00  0.00     0.024 C 
ATOM      3  C   UNL     1       6.083  -1.315   1.623  1.00  0.00     0.006 C 
ENDBRANCH   1   2
BRANCH   1   4
ATOM      4  C   UNL     1       5.018   0.530  -1.645  1.00  0.00     0.180 C 
BRANCH   4   5
ATOM      5  O   UNL     1       5.054   1.894  -1.218  1.00  0.00    -0.394 OA
ATOM      6  H   UNL     1       5.090   2.435  -2.026  1.00  0.00     0.210 HD
ENDBRANCH   4   5
ENDBRANCH   1   4
BRANCH   1   7
ATOM      7  N   UNL     1       3.647  -0.098   0.294  1.00  0.00    -0.351 N 
ATOM      8  C   UNL     1       2.425  -0.556  -0.167  1.00  0.00     0.228 C 
ATOM      9  H   UNL     1       3.657   0.776   0.806  1.00  0.00     0.163 HD
ATOM     10  O   UNL     1       2.331  -1.371  -1.081  1.00  0.00    -0.274 OA
BRANCH   8  11
ATOM     11  C   UNL     1       1.222   0.052   0.568  1.00  0.00     0.115 C 
ATOM     12  C   UNL     1      -0.012  -0.801   0.405  1.00  0.00    -0.007 C 
ATOM     13  C   UNL     1       0.995   1.484   0.044  1.00  0.00     0.102 C 
ATOM     14  C   UNL     1      -1.212  -0.273   0.094  1.00  0.00    -0.026 C 
ATOM     15  N   UNL     1      -0.280   2.089   0.479  1.00  0.00    -0.298 NA
ATOM     16  C   UNL     1      -2.381  -1.139  -0.204  1.00  0.00    -0.011 A 
ATOM     17  C   UNL     1      -1.424   1.269  -0.030  1.00  0.00     0.091 C 
ATOM     18  C   UNL     1      -0.299   2.296   1.927  1.00  0.00     0.106 C 
ATOM     19  C   UNL     1      -2.387  -2.504  -0.523  1.00  0.00     0.009 A 
ATOM     20  C   UNL     1      -3.619  -0.477  -0.207  1.00  0.00     0.010 A 
ATOM     21  C   UNL     1      -2.817   1.794   0.484  1.00  0.00     0.061 C 
ATOM     22  C   UNL     1      -3.585  -3.166  -0.822  1.00  0.00     0.003 A 
ATOM     23  C   UNL     1      -4.804  -1.131  -0.513  1.00  0.00     0.049 A 
ATOM     24  C   UNL     1      -3.914   0.875   0.074  1.00  0.00    -0.020 A 
ATOM     25  C   UNL     1      -4.817  -2.496  -0.824  1.00  0.00     0.027 A 
ATOM     26  N   UNL     1      -5.800  -0.178  -0.430  1.00  0.00    -0.350 N 
ATOM     27  C   UNL     1      -5.271   1.042  -0.072  1.00  0.00     0.090 A 
ATOM     28  C   UNL     1      -7.202  -0.427  -0.677  1.00  0.00     0.149 C 
ENDBRANCH   8  11
ENDBRANCH   1   7
TORSDOF 5
