REMARK SMILES CC(=O)c1ccc2c(c1)N(CCCN1CCC(CCO)CC1)c1ccccc1S2
REMARK SMILES IDX 13 1 12 2 11 3 10 4 4 5 5 6 9 7 6 8 8 9 7 10 29 11 23 12
REMARK SMILES IDX 28 13 24 14 27 15 25 16 26 17 2 18 1 19 3 20 14 21 15 22
REMARK SMILES IDX 22 23 16 24 21 25 17 26 18 27 19 28 20 29
REMARK H PARENT 20 30
REMARK Flexibility Score: inf
ROOT
ATOM      1  C   UNL     1       1.384  -0.853   0.766  1.00  0.00     0.086 C 
ENDROOT
BRANCH   1   2
ATOM      2  C   UNL     1      -0.081  -1.217   0.501  1.00  0.00     0.037 C 
BRANCH   2   3
ATOM      3  C   UNL     1      -1.013  -0.724   1.617  1.00  0.00     0.124 C 
BRANCH   3   4
ATOM      4  N   UNL     1      -2.436  -1.081   1.345  1.00  0.00    -0.340 N 
ATOM      5  C   UNL     1      -3.570   1.943  -0.572  1.00  0.00     0.019 A 
ATOM      6  C   UNL     1      -4.187   1.357  -1.674  1.00  0.00     0.013 A 
ATOM      7  C   UNL     1      -3.006   1.123   0.417  1.00  0.00     0.039 A 
ATOM      8  C   UNL     1      -4.263  -0.034  -1.765  1.00  0.00     0.018 A 
ATOM      9  C   UNL     1      -3.037  -0.284   0.326  1.00  0.00     0.056 A 
ATOM     10  C   UNL     1      -3.706  -0.856  -0.770  1.00  0.00     0.036 A 
ATOM     11  S   UNL     1      -3.839  -2.614  -1.012  1.00  0.00    -0.086 SA
ATOM     12  C   UNL     1      -2.736  -2.455   1.560  1.00  0.00     0.055 A 
ATOM     13  C   UNL     1      -3.384  -3.242   0.591  1.00  0.00     0.036 A 
ATOM     14  C   UNL     1      -2.437  -3.057   2.798  1.00  0.00     0.027 A 
ATOM     15  C   UNL     1      -3.670  -4.594   0.852  1.00  0.00     0.017 A 
ATOM     16  C   UNL     1      -2.730  -4.400   3.054  1.00  0.00     0.002 A 
ATOM     17  C   UNL     1      -3.345  -5.170   2.078  1.00  0.00     0.001 A 
BRANCH   5  18
ATOM     18  C   UNL     1      -3.463   3.421  -0.412  1.00  0.00     0.159 C 
ATOM     19  C   UNL     1      -4.233   4.318  -1.349  1.00  0.00     0.093 C 
ATOM     20  O   UNL     1      -2.722   3.889   0.451  1.00  0.00    -0.295 OA
ENDBRANCH   5  18
ENDBRANCH   3   4
ENDBRANCH   2   3
ENDBRANCH   1   2
BRANCH   1  21
ATOM     21  N   UNL     1       1.632   0.594   0.859  1.00  0.00    -0.303 NA
ATOM     22  C   UNL     1       2.953   0.892   1.431  1.00  0.00     0.085 C 
ATOM     23  C   UNL     1       1.467   1.311  -0.414  1.00  0.00     0.085 C 
ATOM     24  C   UNL     1       4.125   0.578   0.493  1.00  0.00     0.019 C 
ATOM     25  C   UNL     1       2.567   1.019  -1.438  1.00  0.00     0.019 C 
ATOM     26  C   UNL     1       3.969   1.280  -0.864  1.00  0.00    -0.006 C 
BRANCH  26  27
ATOM     27  C   UNL     1       5.043   0.847  -1.876  1.00  0.00     0.032 C 
BRANCH  27  28
ATOM     28  C   UNL     1       6.454   1.291  -1.499  1.00  0.00     0.156 C 
BRANCH  28  29
ATOM     29  O   UNL     1       7.366   0.883  -2.517  1.00  0.00    -0.396 OA
ATOM     30  H   UNL     1       7.425  -0.088  -2.485  1.00  0.00     0.210 HD
ENDBRANCH  28  29
ENDBRANCH  27  28
ENDBRANCH  26  27
ENDBRANCH   1  21
TORSDOF 8
