REMARK SMILES CCOc1cc([C@@H](CS(C)(=O)=O)N2C(=O)c3cccc(NC(C)=O)c3C2=O)ccc1OC
REMARK SMILES IDX 4 1 5 2 6 3 28 4 29 5 30 6 3 7 2 8 1 9 31 10 32 11 7 12 8 13
REMARK SMILES IDX 9 14 10 15 11 16 12 17 13 18 14 19 26 20 15 21 16 22 25 23
REMARK SMILES IDX 27 24 17 25 20 26 18 27 19 28 21 29 22 30 23 32 24 33
REMARK H PARENT 21 31
REMARK Flexibility Score: inf
ROOT
ATOM      1  C   UNL     1      -3.227  -0.842   0.220  1.00  0.00     0.161 A 
ATOM      2  C   UNL     1      -2.289  -0.263  -0.644  1.00  0.00     0.056 A 
ATOM      3  C   UNL     1      -1.238   0.534  -0.153  1.00  0.00    -0.020 A 
ATOM      4  C   UNL     1      -1.133   0.719   1.231  1.00  0.00     0.010 A 
ATOM      5  C   UNL     1      -2.067   0.147   2.101  1.00  0.00     0.051 A 
ATOM      6  C   UNL     1      -3.118  -0.629   1.606  1.00  0.00     0.160 A 
ENDROOT
BRANCH   1   7
ATOM      7  O   UNL     1      -4.273  -1.634  -0.189  1.00  0.00    -0.490 OA
BRANCH   7   8
ATOM      8  C   UNL     1      -4.483  -1.788  -1.590  1.00  0.00     0.226 C 
ATOM      9  C   UNL     1      -5.730  -2.630  -1.786  1.00  0.00     0.049 C 
ENDBRANCH   7   8
ENDBRANCH   1   7
BRANCH   6  10
ATOM     10  O   UNL     1      -4.069  -1.235   2.390  1.00  0.00    -0.493 OA
ATOM     11  C   UNL     1      -4.118  -0.866   3.761  1.00  0.00     0.278 C 
ENDBRANCH   6  10
BRANCH   3  12
ATOM     12  C   UNL     1      -0.220   1.109  -1.134  1.00  0.00     0.139 C 
BRANCH  12  13
ATOM     13  C   UNL     1       0.127   2.585  -0.917  1.00  0.00     0.167 C 
BRANCH  13  14
ATOM     14  S   UNL     1      -1.192   3.647  -1.463  1.00  0.00     0.149 S 
ATOM     15  C   UNL     1      -0.487   5.267  -1.284  1.00  0.00     0.158 C 
ATOM     16  O   UNL     1      -1.392   3.418  -2.881  1.00  0.00    -0.229 OA
ATOM     17  O   UNL     1      -2.290   3.552  -0.525  1.00  0.00    -0.229 OA
ENDBRANCH  13  14
ENDBRANCH  12  13
BRANCH  12  18
ATOM     18  N   UNL     1       0.974   0.253  -1.138  1.00  0.00    -0.266 N 
ATOM     19  C   UNL     1       1.096  -0.841  -1.954  1.00  0.00     0.262 C 
ATOM     20  C   UNL     1       1.999   0.312  -0.235  1.00  0.00     0.264 C 
ATOM     21  O   UNL     1       0.353  -1.230  -2.834  1.00  0.00    -0.269 OA
ATOM     22  C   UNL     1       2.335  -1.515  -1.573  1.00  0.00     0.055 A 
ATOM     23  C   UNL     1       2.888  -0.812  -0.518  1.00  0.00     0.076 A 
ATOM     24  O   UNL     1       2.203   1.120   0.654  1.00  0.00    -0.268 OA
ATOM     25  C   UNL     1       2.930  -2.646  -2.092  1.00  0.00     0.015 A 
ATOM     26  C   UNL     1       4.075  -1.193   0.091  1.00  0.00     0.054 A 
ATOM     27  C   UNL     1       4.129  -3.055  -1.505  1.00  0.00     0.003 A 
ATOM     28  C   UNL     1       4.695  -2.337  -0.426  1.00  0.00     0.027 A 
BRANCH  26  29
ATOM     29  N   UNL     1       4.568  -0.424   1.166  1.00  0.00    -0.326 N 
ATOM     30  C   UNL     1       5.724  -0.638   1.891  1.00  0.00     0.221 C 
ATOM     31  H   UNL     1       3.990   0.372   1.437  1.00  0.00     0.169 HD
ATOM     32  C   UNL     1       5.914   0.381   2.987  1.00  0.00     0.114 C 
ATOM     33  O   UNL     1       6.530  -1.546   1.727  1.00  0.00    -0.275 OA
ENDBRANCH  26  29
ENDBRANCH  12  18
ENDBRANCH   3  12
TORSDOF 8
