REMARK SMILES Cc1ccc(=O)n(-c2ccccc2)c1
REMARK SMILES IDX 1 1 2 2 3 3 4 4 5 5 6 6 7 7 14 8 8 9 9 10 13 11 10 12 12 13
REMARK SMILES IDX 11 14
REMARK H PARENT
REMARK Flexibility Score: inf
ROOT
ATOM      1  C   UNL     1       3.498   0.948  -1.002  1.00  0.00     0.046 C 
ATOM      2  C   UNL     1       2.457   0.108  -0.325  1.00  0.00    -0.034 C 
ATOM      3  C   UNL     1       2.906  -1.059   0.390  1.00  0.00     0.010 C 
ATOM      4  C   UNL     1       2.030  -1.834   1.034  1.00  0.00     0.072 C 
ATOM      5  C   UNL     1       0.570  -1.530   1.015  1.00  0.00     0.255 C 
ATOM      6  O   UNL     1      -0.161  -2.336   1.590  1.00  0.00    -0.269 OA
ATOM      7  N   UNL     1       0.179  -0.371   0.304  1.00  0.00    -0.284 N 
ATOM      8  C   UNL     1       1.148   0.403  -0.343  1.00  0.00     0.098 C 
ENDROOT
BRANCH   7   9
ATOM      9  C   UNL     1      -1.221  -0.002   0.241  1.00  0.00     0.049 A 
ATOM     10  C   UNL     1      -2.122  -0.329   1.267  1.00  0.00     0.027 A 
ATOM     11  C   UNL     1      -1.730   0.721  -0.854  1.00  0.00     0.027 A 
ATOM     12  C   UNL     1      -3.469   0.047   1.204  1.00  0.00     0.002 A 
ATOM     13  C   UNL     1      -3.077   1.097  -0.920  1.00  0.00     0.002 A 
ATOM     14  C   UNL     1      -3.947   0.761   0.111  1.00  0.00     0.000 A 
ENDBRANCH   7   9
TORSDOF 1
