REMARK SMILES CC(C)CC(N(C)C)C1(c2ccc(Cl)cc2)CCC1
REMARK SMILES IDX 5 1 4 2 2 3 1 4 3 5 6 6 7 7 8 8 9 9 17 10 19 11 18 12 10 13
REMARK SMILES IDX 11 14 16 15 12 16 15 17 13 18 14 19
REMARK H PARENT
REMARK Flexibility Score: inf
ROOT
ATOM      1  C   UNL     1      -0.722  -0.645  -0.229  1.00  0.00     0.066 C 
ENDROOT
BRANCH   1   2
ATOM      2  C   UNL     1      -1.301   0.735  -0.662  1.00  0.00     0.023 C 
BRANCH   2   3
ATOM      3  C   UNL     1      -2.841   0.802  -0.804  1.00  0.00    -0.016 C 
ATOM      4  C   UNL     1      -3.594   0.696   0.521  1.00  0.00     0.007 C 
ATOM      5  C   UNL     1      -3.228   2.117  -1.494  1.00  0.00     0.007 C 
ENDBRANCH   2   3
ENDBRANCH   1   2
BRANCH   1   6
ATOM      6  N   UNL     1      -1.046  -0.994   1.169  1.00  0.00    -0.306 NA
ATOM      7  C   UNL     1      -0.548  -0.134   2.231  1.00  0.00     0.105 C 
ATOM      8  C   UNL     1      -0.897  -2.401   1.509  1.00  0.00     0.105 C 
ENDBRANCH   1   6
BRANCH   1   9
ATOM      9  C   UNL     1       0.777  -0.802  -0.685  1.00  0.00     0.011 C 
ATOM     10  C   UNL     1       0.911  -0.784  -2.273  1.00  0.00     0.013 C 
ATOM     11  C   UNL     1       1.244  -2.311  -0.841  1.00  0.00     0.013 C 
ATOM     12  C   UNL     1       1.945  -1.912  -2.148  1.00  0.00     0.002 C 
BRANCH   9  13
ATOM     13  C   UNL     1       1.816   0.214   0.070  1.00  0.00    -0.040 A 
ATOM     14  C   UNL     1       1.922   1.577  -0.287  1.00  0.00     0.006 A 
ATOM     15  C   UNL     1       2.699  -0.221   1.083  1.00  0.00     0.006 A 
ATOM     16  C   UNL     1       2.823   2.449   0.334  1.00  0.00     0.021 A 
ATOM     17  C   UNL     1       3.605   0.641   1.712  1.00  0.00     0.021 A 
ATOM     18  C   UNL     1       3.661   1.976   1.335  1.00  0.00     0.041 A 
ATOM     19  Cl  UNL     1       4.771   3.041   2.103  1.00  0.00    -0.084 Cl
ENDBRANCH   9  13
ENDBRANCH   1   9
TORSDOF 5
