REMARK SMILES CNc1ccc(-c2nc3ccc(O)cc3s2)cc1F
REMARK SMILES IDX 7 1 8 2 9 3 15 4 16 5 14 6 12 7 11 8 10 9 6 10 3 11 18 12
REMARK SMILES IDX 4 13 19 14 17 15 5 16 2 17 1 18 13 20
REMARK H PARENT 2 19 13 21
REMARK Flexibility Score: inf
ROOT
ATOM      1  C   UNL     1      -0.711   0.127   0.200  1.00  0.00     0.124 A 
ATOM      2  N   UNL     1      -1.406  -0.333  -0.822  1.00  0.00    -0.236 NA
ATOM      3  C   UNL     1      -2.762  -0.146  -0.621  1.00  0.00     0.082 A 
ATOM      4  C   UNL     1      -3.105   0.471   0.581  1.00  0.00     0.059 A 
ATOM      5  S   UNL     1      -1.667   0.813   1.459  1.00  0.00    -0.114 S 
ATOM      6  C   UNL     1      -4.441   0.732   0.934  1.00  0.00     0.067 A 
ATOM      7  C   UNL     1      -5.431   0.349   0.029  1.00  0.00     0.117 A 
ATOM      8  C   UNL     1      -5.122  -0.267  -1.175  1.00  0.00     0.048 A 
ATOM      9  C   UNL     1      -3.789  -0.520  -1.511  1.00  0.00     0.034 A 
ENDROOT
BRANCH   1  10
ATOM     10  C   UNL     1       0.765   0.071   0.272  1.00  0.00     0.014 A 
ATOM     11  C   UNL     1       3.618  -0.107   0.314  1.00  0.00     0.070 A 
ATOM     12  C   UNL     1       2.867  -0.480  -0.812  1.00  0.00     0.146 A 
ATOM     13  C   UNL     1       2.912   0.400   1.406  1.00  0.00     0.029 A 
ATOM     14  F   UNL     1       3.505  -0.946  -1.899  1.00  0.00    -0.205 F 
ATOM     15  C   UNL     1       1.475  -0.409  -0.836  1.00  0.00     0.052 A 
ATOM     16  C   UNL     1       1.509   0.478   1.392  1.00  0.00     0.013 A 
BRANCH  11  17
ATOM     17  N   UNL     1       5.020  -0.138   0.249  1.00  0.00    -0.386 N 
ATOM     18  C   UNL     1       5.772  -0.331   1.475  1.00  0.00     0.139 C 
ATOM     19  H   UNL     1       5.323  -0.754  -0.507  1.00  0.00     0.160 HD
ENDBRANCH  11  17
ENDBRANCH   1  10
BRANCH   7  20
ATOM     20  O   UNL     1      -6.751   0.568   0.299  1.00  0.00    -0.508 OA
ATOM     21  H   UNL     1      -6.829   1.005   1.164  1.00  0.00     0.293 HD
ENDBRANCH   7  20
TORSDOF 3
