REMARK SMILES COCCCN1CCC(NC(=O)c2cc(Cl)c(N)c3c2OCC3)CC1
REMARK SMILES IDX 6 1 7 2 8 3 9 4 24 5 25 6 5 7 4 8 3 9 2 10 1 11 10 12 11 13
REMARK SMILES IDX 12 15 13 16 14 17 20 18 15 19 19 20 21 21 16 22 17 23 23 24
REMARK SMILES IDX 22 25 18 26
REMARK H PARENT 10 14 18 27 18 28
REMARK Flexibility Score: inf
ROOT
ATOM      1  N   UNL     1       2.931  -0.548  -1.022  1.00  0.00    -0.303 NA
ATOM      2  C   UNL     1       2.350   0.772  -0.838  1.00  0.00     0.086 C 
ATOM      3  C   UNL     1       0.928   0.814  -1.409  1.00  0.00     0.040 C 
ATOM      4  C   UNL     1       0.141  -0.482  -1.162  1.00  0.00     0.084 C 
ATOM      5  C   UNL     1       0.750  -1.277  -0.009  1.00  0.00     0.040 C 
ATOM      6  C   UNL     1       2.220  -1.605  -0.290  1.00  0.00     0.086 C 
ENDROOT
BRANCH   1   7
ATOM      7  C   UNL     1       4.387  -0.629  -0.888  1.00  0.00     0.087 C 
BRANCH   7   8
ATOM      8  C   UNL     1       5.012  -0.229   0.457  1.00  0.00     0.044 C 
BRANCH   8   9
ATOM      9  C   UNL     1       5.370   1.253   0.552  1.00  0.00     0.161 C 
BRANCH   9  10
ATOM     10  O   UNL     1       5.910   1.572   1.836  1.00  0.00    -0.385 OA
ATOM     11  C   UNL     1       7.294   1.272   1.954  1.00  0.00     0.194 C 
ENDBRANCH   9  10
ENDBRANCH   8   9
ENDBRANCH   7   8
ENDBRANCH   1   7
BRANCH   4  12
ATOM     12  N   UNL     1      -1.267  -0.196  -0.918  1.00  0.00    -0.349 N 
ATOM     13  C   UNL     1      -2.257  -1.129  -1.128  1.00  0.00     0.255 C 
ATOM     14  H   UNL     1      -1.510   0.634  -0.384  1.00  0.00     0.164 HD
ATOM     15  O   UNL     1      -2.048  -2.228  -1.631  1.00  0.00    -0.269 OA
BRANCH  13  16
ATOM     16  C   UNL     1      -3.639  -0.757  -0.709  1.00  0.00     0.083 A 
ATOM     17  C   UNL     1      -4.692  -1.614  -1.058  1.00  0.00     0.040 A 
ATOM     18  C   UNL     1      -3.960   0.389   0.007  1.00  0.00     0.137 A 
ATOM     19  C   UNL     1      -6.014  -1.307  -0.696  1.00  0.00     0.065 A 
ATOM     20  C   UNL     1      -5.273   0.690   0.371  1.00  0.00     0.023 A 
ATOM     21  O   UNL     1      -3.065   1.358   0.408  1.00  0.00    -0.492 OA
ATOM     22  Cl  UNL     1      -7.268  -2.397  -1.185  1.00  0.00    -0.082 Cl
ATOM     23  C   UNL     1      -6.328  -0.159   0.061  1.00  0.00     0.057 A 
ATOM     24  C   UNL     1      -5.304   2.025   1.017  1.00  0.00     0.083 C 
ATOM     25  C   UNL     1      -3.820   2.180   1.325  1.00  0.00     0.234 C 
BRANCH  23  26
ATOM     26  N   UNL     1      -7.653   0.233   0.301  1.00  0.00    -0.397 N 
ATOM     27  H   UNL     1      -8.310  -0.544   0.244  1.00  0.00     0.156 HD
ATOM     28  H   UNL     1      -7.789   0.800   1.130  1.00  0.00     0.156 HD
ENDBRANCH  23  26
ENDBRANCH  13  16
ENDBRANCH   4  12
TORSDOF 7
