REMARK SMILES CN1C(=O)C(O)N=C(c2ccccc2)c2cc(Cl)ccc21
REMARK SMILES IDX 15 1 16 2 17 3 18 4 19 5 20 6 21 7 2 8 1 9 3 10 4 11 8 13
REMARK SMILES IDX 7 14 9 15 10 16 14 17 11 18 13 19 12 20 5 21 6 23
REMARK H PARENT 6 24
REMARK Flexibility Score: 80.00
ROOT
ATOM      1  C   UNL     1      -0.089   0.177  -0.875  1.00  0.00     0.026 A 
ATOM      2  C   UNL     1       0.792   0.874  -1.723  1.00  0.00     0.033 A 
ATOM      3  C   UNL     1       0.298   1.804  -2.629  1.00  0.00     0.041 A 
ATOM      4  Cl  UNL     1       1.381   2.665  -3.650  1.00  0.00    -0.084 Cl
ATOM      5  C   UNL     1      -1.066   2.050  -2.703  1.00  0.00     0.023 A 
ATOM      6  C   UNL     1      -1.947   1.341  -1.880  1.00  0.00     0.028 A 
ATOM      7  C   UNL     1      -1.483   0.372  -0.970  1.00  0.00     0.053 A 
ENDROOT
BRANCH   7   8
ATOM      8  N   UNL     1      -2.431  -0.360  -0.188  1.00  0.00    -0.311 N 
ATOM      9  C   UNL     1      -3.712   0.253   0.135  1.00  0.00     0.153 C 
BRANCH   8  10
ATOM     10  C   UNL     1      -2.263  -1.703   0.180  1.00  0.00     0.278 CG0
ATOM     11  O   UNL     1      -3.093  -2.305   0.872  1.00  0.00    -0.269 OA
ATOM     12  G   UNL     1      -1.001  -2.434  -0.363  1.00  0.00     0.000 G0
ENDBRANCH   8  10
ENDBRANCH   7   8
BRANCH   1  13
ATOM     13  C   UNL     1       0.524  -0.716   0.153  1.00  0.00     0.078 C 
ATOM     14  N   UNL     1       0.137  -1.925   0.387  1.00  0.00    -0.243 NA
BRANCH  13  15
ATOM     15  C   UNL     1       1.667  -0.194   0.969  1.00  0.00     0.000 A 
ATOM     16  C   UNL     1       2.689  -1.073   1.346  1.00  0.00     0.010 A 
ATOM     17  C   UNL     1       1.713   1.144   1.383  1.00  0.00     0.010 A 
ATOM     18  C   UNL     1       3.764  -0.612   2.107  1.00  0.00     0.001 A 
ATOM     19  C   UNL     1       2.791   1.600   2.144  1.00  0.00     0.001 A 
ATOM     20  C   UNL     1       3.816   0.725   2.502  1.00  0.00     0.000 A 
ENDBRANCH  13  15
BRANCH  14  21
ATOM     21  C   UNL     1      -1.001  -2.434  -0.363  1.00  0.00     0.323 CG0
ATOM     22  G   UNL     1      -2.263  -1.703   0.180  1.00  0.00     0.000 G0
BRANCH  21  23
ATOM     23  O   UNL     1      -1.147  -3.839  -0.224  1.00  0.00    -0.364 OA
ATOM     24  H   UNL     1      -1.297  -3.959   0.731  1.00  0.00     0.213 HD
ENDBRANCH  21  23
ENDBRANCH  14  21
ENDBRANCH   1  13
TORSDOF 2
