REMARK SMILES Oc1ccc2c(c1)[C@@]13CCCC[C@@]1(O)[C@@H](C2)N(CC1CCC1)CC3
REMARK SMILES IDX 2 1 3 2 4 3 5 4 6 5 7 6 8 7 9 8 10 9 11 10 12 11 13 12 15 13
REMARK SMILES IDX 16 14 17 15 23 16 24 17 1 18 14 20 18 22 19 23 20 24 22 25
REMARK SMILES IDX 21 26
REMARK H PARENT 1 19 14 21
REMARK Flexibility Score: inf
ROOT
ATOM      1  C   UNL     1      -3.777   1.020   2.167  1.00  0.00     0.115 A 
ATOM      2  C   UNL     1      -3.329   2.319   1.980  1.00  0.00     0.046 A 
ATOM      3  C   UNL     1      -2.222   2.542   1.166  1.00  0.00     0.008 A 
ATOM      4  C   UNL     1      -1.565   1.472   0.533  1.00  0.00    -0.042 A 
ATOM      5  C   UNL     1      -2.043   0.151   0.695  1.00  0.00    -0.032 A 
ATOM      6  C   UNL     1      -3.146  -0.053   1.544  1.00  0.00     0.050 A 
ATOM      7  C   UNL     1      -1.314  -1.033   0.017  1.00  0.00     0.027 C 
ATOM      8  C   UNL     1      -2.267  -2.191  -0.396  1.00  0.00     0.015 C 
ATOM      9  C   UNL     1      -3.240  -1.790  -1.508  1.00  0.00     0.001 C 
ATOM     10  C   UNL     1      -2.516  -1.248  -2.736  1.00  0.00     0.003 C 
ATOM     11  C   UNL     1      -1.537  -0.126  -2.378  1.00  0.00     0.038 C 
ATOM     12  C   UNL     1      -0.556  -0.556  -1.262  1.00  0.00     0.090 C 
ATOM     13  C   UNL     1       0.429   0.562  -0.832  1.00  0.00     0.093 C 
ATOM     14  C   UNL     1      -0.357   1.792  -0.323  1.00  0.00     0.058 C 
ATOM     15  N   UNL     1       1.407   0.131   0.203  1.00  0.00    -0.297 NA
ATOM     16  C   UNL     1       0.826  -0.546   1.367  1.00  0.00     0.086 C 
ATOM     17  C   UNL     1      -0.273  -1.569   1.040  1.00  0.00     0.030 C 
ENDROOT
BRANCH   1  18
ATOM     18  O   UNL     1      -4.846   0.746   2.969  1.00  0.00    -0.508 OA
ATOM     19  H   UNL     1      -5.184   1.583   3.329  1.00  0.00     0.293 HD
ENDBRANCH   1  18
BRANCH  12  20
ATOM     20  O   UNL     1       0.197  -1.638  -1.855  1.00  0.00    -0.387 OA
ATOM     21  H   UNL     1       0.886  -1.890  -1.223  1.00  0.00     0.211 HD
ENDBRANCH  12  20
BRANCH  15  22
ATOM     22  C   UNL     1       2.648  -0.466  -0.292  1.00  0.00     0.088 C 
BRANCH  22  23
ATOM     23  C   UNL     1       3.839   0.066   0.503  1.00  0.00     0.003 C 
ATOM     24  C   UNL     1       4.222   1.557   0.289  1.00  0.00     0.005 C 
ATOM     25  C   UNL     1       5.241  -0.280  -0.068  1.00  0.00     0.005 C 
ATOM     26  C   UNL     1       5.696   1.117   0.400  1.00  0.00     0.001 C 
ENDBRANCH  22  23
ENDBRANCH  15  22
TORSDOF 4
