REMARK SMILES O=C(CCCN1CC=C(n2c(=O)[nH]c3ccccc32)CC1)c1ccc(F)cc1
REMARK SMILES IDX 4 1 3 2 2 3 1 4 22 5 23 6 28 7 24 8 27 9 25 10 26 11 5 12
REMARK SMILES IDX 6 13 7 14 21 15 8 16 20 17 9 18 10 19 11 20 19 21 12 22
REMARK SMILES IDX 13 23 14 24 18 25 15 27 17 28 16 29
REMARK H PARENT 13 26
REMARK Flexibility Score: inf
ROOT
ATOM      1  C   UNL     1       2.377   1.002  -0.960  1.00  0.00     0.024 C 
ENDROOT
BRANCH   1   2
ATOM      2  C   UNL     1       3.783   1.598  -0.955  1.00  0.00     0.082 C 
BRANCH   2   3
ATOM      3  C   UNL     1       4.807   0.557  -1.358  1.00  0.00     0.162 C 
ATOM      4  O   UNL     1       5.070   0.365  -2.545  1.00  0.00    -0.294 OA
BRANCH   3   5
ATOM      5  C   UNL     1       5.499  -0.260  -0.313  1.00  0.00     0.018 A 
ATOM      6  C   UNL     1       6.573  -1.072  -0.714  1.00  0.00     0.015 A 
ATOM      7  C   UNL     1       5.111  -0.254   1.035  1.00  0.00     0.015 A 
ATOM      8  C   UNL     1       7.255  -1.858   0.217  1.00  0.00     0.040 A 
ATOM      9  C   UNL     1       5.797  -1.043   1.965  1.00  0.00     0.040 A 
ATOM     10  C   UNL     1       6.861  -1.835   1.549  1.00  0.00     0.123 A 
ATOM     11  F   UNL     1       7.511  -2.587   2.444  1.00  0.00    -0.207 F 
ENDBRANCH   3   5
ENDBRANCH   2   3
ENDBRANCH   1   2
BRANCH   1  12
ATOM     12  C   UNL     1       1.337   2.061  -0.571  1.00  0.00     0.085 C 
BRANCH  12  13
ATOM     13  N   UNL     1      -0.063   1.631  -0.536  1.00  0.00    -0.299 NA
ATOM     14  C   UNL     1      -0.352   0.649   0.507  1.00  0.00     0.113 C 
ATOM     15  C   UNL     1      -0.567   1.160  -1.827  1.00  0.00     0.091 C 
ATOM     16  C   UNL     1      -1.797   0.235   0.521  1.00  0.00     0.010 C 
ATOM     17  C   UNL     1      -2.098   0.992  -1.801  1.00  0.00     0.070 C 
ATOM     18  C   UNL     1      -2.653   0.427  -0.501  1.00  0.00     0.026 C 
BRANCH  18  19
ATOM     19  N   UNL     1      -4.014   0.116  -0.441  1.00  0.00    -0.265 N 
ATOM     20  C   UNL     1      -4.857  -0.072  -1.600  1.00  0.00     0.330 C 
ATOM     21  C   UNL     1      -4.862  -0.058   0.696  1.00  0.00     0.074 A 
ATOM     22  O   UNL     1      -4.593   0.012  -2.790  1.00  0.00    -0.247 OA
ATOM     23  N   UNL     1      -6.131  -0.419  -1.133  1.00  0.00    -0.305 N 
ATOM     24  C   UNL     1      -6.137  -0.404   0.247  1.00  0.00     0.067 A 
ATOM     25  C   UNL     1      -4.651   0.126   2.051  1.00  0.00     0.029 A 
ATOM     26  H   UNL     1      -6.908  -0.601  -1.746  1.00  0.00     0.171 HD
ATOM     27  C   UNL     1      -7.207  -0.641   1.085  1.00  0.00     0.028 A 
ATOM     28  C   UNL     1      -5.718  -0.109   2.931  1.00  0.00     0.002 A 
ATOM     29  C   UNL     1      -6.982  -0.499   2.453  1.00  0.00     0.002 A 
ENDBRANCH  18  19
ENDBRANCH  12  13
ENDBRANCH   1  12
TORSDOF 6
