REMARK SMILES CN1CCN(c2cc(C(=O)Nc3cc4cc(-c5cnn(C)c5)ccc4cn3)ccn2)CC1
REMARK SMILES IDX 11 1 9 2 10 3 12 5 16 6 15 7 23 8 14 9 24 10 25 11 13 12
REMARK SMILES IDX 26 13 27 14 17 15 21 16 20 17 22 18 19 19 18 20 8 21 28 22
REMARK SMILES IDX 7 23 29 24 6 25 30 26 5 27 4 28 31 29 3 30 32 31 2 32 1 33
REMARK H PARENT 11 4
REMARK Flexibility Score: inf
ROOT
ATOM      1  N   UNL     1      -0.223   0.390   0.364  1.00  0.00    -0.307 N 
ATOM      2  C   UNL     1      -0.527  -0.399   1.447  1.00  0.00     0.257 C 
ATOM      3  O   UNL     1       0.275  -0.925   2.210  1.00  0.00    -0.269 OA
ATOM      4  H   UNL     1      -0.954   0.875  -0.135  1.00  0.00     0.171 HD
ENDROOT
BRANCH   1   5
ATOM      5  C   UNL     1       1.036   0.717  -0.142  1.00  0.00     0.133 A 
ATOM      6  C   UNL     1       5.886   0.549  -0.391  1.00  0.00    -0.015 A 
ATOM      7  C   UNL     1       4.686   0.145   0.214  1.00  0.00     0.017 A 
ATOM      8  C   UNL     1       5.830   1.441  -1.470  1.00  0.00     0.009 A 
ATOM      9  C   UNL     1       3.441   0.615  -0.243  1.00  0.00    -0.013 A 
ATOM     10  C   UNL     1       4.601   1.918  -1.936  1.00  0.00     0.011 A 
ATOM     11  C   UNL     1       3.404   1.508  -1.327  1.00  0.00     0.000 A 
ATOM     12  C   UNL     1       2.233   0.217   0.350  1.00  0.00     0.056 A 
ATOM     13  C   UNL     1       2.149   1.948  -1.747  1.00  0.00     0.122 A 
ATOM     14  N   UNL     1       0.976   1.573  -1.183  1.00  0.00    -0.238 NA
BRANCH   6  15
ATOM     15  C   UNL     1       7.157   0.053   0.107  1.00  0.00     0.020 A 
ATOM     16  C   UNL     1      10.598  -1.004  -0.140  1.00  0.00     0.173 C 
ATOM     17  N   UNL     1       9.244  -0.634   0.194  1.00  0.00    -0.275 N 
ATOM     18  C   UNL     1       8.292  -0.145  -0.654  1.00  0.00     0.117 A 
ATOM     19  N   UNL     1       8.815  -0.770   1.460  1.00  0.00    -0.181 NA
ATOM     20  C   UNL     1       7.545  -0.358   1.405  1.00  0.00     0.143 A 
ENDBRANCH   6  15
ENDBRANCH   1   5
BRANCH   2  21
ATOM     21  C   UNL     1      -1.981  -0.580   1.716  1.00  0.00     0.045 A 
ATOM     22  C   UNL     1      -2.386  -0.804   3.028  1.00  0.00     0.034 A 
ATOM     23  C   UNL     1      -2.934  -0.568   0.695  1.00  0.00     0.060 A 
ATOM     24  C   UNL     1      -3.732  -0.984   3.257  1.00  0.00     0.114 A 
ATOM     25  C   UNL     1      -4.281  -0.742   1.009  1.00  0.00     0.129 A 
ATOM     26  N   UNL     1      -4.669  -0.953   2.285  1.00  0.00    -0.239 NA
BRANCH  25  27
ATOM     27  N   UNL     1      -5.236  -0.738  -0.025  1.00  0.00    -0.354 N 
ATOM     28  C   UNL     1      -5.322   0.562  -0.724  1.00  0.00     0.133 C 
ATOM     29  C   UNL     1      -6.558  -1.238   0.413  1.00  0.00     0.133 C 
ATOM     30  C   UNL     1      -6.348   0.495  -1.883  1.00  0.00     0.105 C 
ATOM     31  C   UNL     1      -7.547  -1.274  -0.777  1.00  0.00     0.105 C 
ATOM     32  N   UNL     1      -7.693   0.000  -1.519  1.00  0.00    -0.303 NA
ATOM     33  C   UNL     1      -8.441   0.989  -0.745  1.00  0.00     0.105 C 
ENDBRANCH  25  27
ENDBRANCH   2  21
TORSDOF 4
