REMARK SMILES Cc1cnc(NC(=O)C2=C(O)c3ccccc3S(=O)(=O)N2C)s1
REMARK SMILES IDX 9 1 10 2 12 3 13 4 14 5 15 6 16 7 17 8 18 9 19 10 20 11
REMARK SMILES IDX 21 12 22 13 7 14 6 15 8 17 5 18 1 19 2 20 3 21 23 22 4 23
REMARK SMILES IDX 11 24
REMARK H PARENT 6 16 11 25
REMARK Flexibility Score: inf
ROOT
ATOM      1  C   UNL     1      -0.601   0.429   0.233  1.00  0.00     0.159 C 
ATOM      2  C   UNL     1      -1.397   1.378  -0.304  1.00  0.00     0.154 C 
ATOM      3  C   UNL     1      -2.852   1.199  -0.503  1.00  0.00     0.039 A 
ATOM      4  C   UNL     1      -3.705   2.292  -0.713  1.00  0.00     0.013 A 
ATOM      5  C   UNL     1      -5.076   2.104  -0.927  1.00  0.00     0.001 A 
ATOM      6  C   UNL     1      -5.618   0.819  -0.940  1.00  0.00     0.001 A 
ATOM      7  C   UNL     1      -4.790  -0.282  -0.742  1.00  0.00     0.023 A 
ATOM      8  C   UNL     1      -3.421  -0.078  -0.540  1.00  0.00     0.099 A 
ATOM      9  S   UNL     1      -2.368  -1.450  -0.232  1.00  0.00     0.265 S 
ATOM     10  O   UNL     1      -3.114  -2.420   0.542  1.00  0.00    -0.201 OA
ATOM     11  O   UNL     1      -1.700  -1.812  -1.464  1.00  0.00    -0.201 OA
ATOM     12  N   UNL     1      -1.212  -0.750   0.789  1.00  0.00    -0.261 N 
ATOM     13  C   UNL     1      -0.475  -1.682   1.656  1.00  0.00     0.164 C 
ENDROOT
BRANCH   1  14
ATOM     14  C   UNL     1       0.881   0.645   0.254  1.00  0.00     0.278 C 
ATOM     15  N   UNL     1       1.579  -0.457  -0.169  1.00  0.00    -0.296 N 
ATOM     16  H   UNL     1       1.076  -1.249  -0.552  1.00  0.00     0.172 HD
ATOM     17  O   UNL     1       1.318   1.755   0.542  1.00  0.00    -0.267 OA
BRANCH  15  18
ATOM     18  C   UNL     1       2.939  -0.597  -0.242  1.00  0.00     0.189 A 
ATOM     19  C   UNL     1       6.747   0.025   0.056  1.00  0.00     0.058 C 
ATOM     20  C   UNL     1       5.343  -0.414  -0.144  1.00  0.00     0.023 A 
ATOM     21  C   UNL     1       4.853  -1.588  -0.679  1.00  0.00     0.128 A 
ATOM     22  S   UNL     1       4.029   0.586   0.314  1.00  0.00    -0.102 S 
ATOM     23  N   UNL     1       3.476  -1.692  -0.726  1.00  0.00    -0.228 NA
ENDBRANCH  15  18
ENDBRANCH   1  14
BRANCH   2  24
ATOM     24  O   UNL     1      -0.918   2.601  -0.753  1.00  0.00    -0.505 OA
ATOM     25  H   UNL     1      -0.008   2.734  -0.409  1.00  0.00     0.293 HD
ENDBRANCH   2  24
TORSDOF 3
