REMARK SMILES C[C@@]1(O)CC[C@H]2[C@H](CC[C@@H]3[C@@H]2CC[C@]2(C)[C@@H](C(=O)Cn4cc(C#N)cn4)CC[C@@H]32)C1
REMARK SMILES IDX 19 1 17 2 18 3 16 4 1 5 2 6 4 7 30 8 5 9 7 10 6 11 8 12
REMARK SMILES IDX 11 13 9 14 10 15 12 16 29 17 13 18 14 19 28 20 15 21 27 22
REMARK SMILES IDX 3 23 20 25 21 26 26 27 22 28 25 29 23 30 24 31
REMARK H PARENT 3 24
REMARK Flexibility Score: inf
ROOT
ATOM      1  C   UNL     1       5.014   0.447  -0.857  1.00  0.00     0.219 C 
ENDROOT
BRANCH   1   2
ATOM      2  C   UNL     1       4.036   1.028   0.137  1.00  0.00     0.157 C 
ATOM      3  O   UNL     1       4.328   1.179   1.328  1.00  0.00    -0.297 OA
BRANCH   2   4
ATOM      4  C   UNL     1       2.654   1.469  -0.343  1.00  0.00     0.064 C 
ATOM      5  C   UNL     1      -6.781  -0.897   1.525  1.00  0.00     0.042 C 
ATOM      6  C   UNL     1      -5.610  -0.164   0.859  1.00  0.00     0.062 C 
ATOM      7  C   UNL     1      -4.559   0.254   1.903  1.00  0.00     0.035 C 
ATOM      8  C   UNL     1      -5.010  -1.041  -0.258  1.00  0.00     0.038 C 
ATOM      9  C   UNL     1      -3.406  -0.739   1.982  1.00  0.00     0.007 C 
ATOM     10  C   UNL     1      -3.547  -0.705  -0.593  1.00  0.00    -0.005 C 
ATOM     11  C   UNL     1      -2.624  -0.840   0.652  1.00  0.00    -0.004 C 
ATOM     12  C   UNL     1      -3.409   0.658  -1.281  1.00  0.00     0.004 C 
ATOM     13  C   UNL     1      -1.403   0.128   0.600  1.00  0.00    -0.004 C 
ATOM     14  C   UNL     1      -1.981   0.926  -1.753  1.00  0.00     0.004 C 
ATOM     15  C   UNL     1      -0.906   0.280  -0.864  1.00  0.00    -0.004 C 
ATOM     16  C   UNL     1      -0.281  -0.330   1.570  1.00  0.00     0.005 C 
ATOM     17  C   UNL     1       0.391   1.091  -0.888  1.00  0.00    -0.001 C 
ATOM     18  C   UNL     1       1.041   0.441   1.415  1.00  0.00     0.008 C 
ATOM     19  C   UNL     1       1.518   0.461  -0.044  1.00  0.00    -0.020 C 
ATOM     20  C   UNL     1       1.061   1.367  -2.229  1.00  0.00     0.005 C 
ATOM     21  C   UNL     1       1.911  -0.969  -0.489  1.00  0.00     0.012 C 
ATOM     22  C   UNL     1       2.486   1.808  -1.843  1.00  0.00     0.012 C 
BRANCH   6  23
ATOM     23  O   UNL     1      -6.140   1.036   0.285  1.00  0.00    -0.390 OA
ATOM     24  H   UNL     1      -6.831   0.787  -0.351  1.00  0.00     0.211 HD
ENDBRANCH   6  23
ENDBRANCH   2   4
ENDBRANCH   1   2
BRANCH   1  25
ATOM     25  N   UNL     1       5.995  -0.424  -0.231  1.00  0.00    -0.264 N 
ATOM     26  C   UNL     1       7.087  -0.051   0.502  1.00  0.00     0.128 A 
ATOM     27  N   UNL     1       5.929  -1.757  -0.444  1.00  0.00    -0.180 NA
ATOM     28  C   UNL     1       7.733  -1.219   0.836  1.00  0.00     0.090 A 
ATOM     29  C   UNL     1       6.980  -2.238   0.229  1.00  0.00     0.154 A 
BRANCH  28  30
ATOM     30  C   UNL     1       8.911  -1.354   1.622  1.00  0.00     0.102 C 
ATOM     31  N   UNL     1       9.875  -1.470   2.258  1.00  0.00    -0.192 NA
ENDBRANCH  28  30
ENDBRANCH   1  25
TORSDOF 5
