REMARK SMILES O=C(CCNNC(=O)c1ccncc1)NCc1ccccc1
REMARK SMILES IDX 3 1 2 2 1 3 15 4 16 6 17 7 18 8 22 9 19 10 21 11 20 12 4 13
REMARK SMILES IDX 5 14 6 16 7 17 8 19 9 20 10 21 14 22 11 23 13 24 12 25
REMARK H PARENT 15 5 5 15 6 18
REMARK Flexibility Score: inf
ROOT
ATOM      1  C   UNL     1      -0.488  -0.649   0.297  1.00  0.00     0.117 C 
ENDROOT
BRANCH   1   2
ATOM      2  C   UNL     1      -1.236  -0.120  -0.907  1.00  0.00     0.221 C 
ATOM      3  O   UNL     1      -0.731   0.027  -2.015  1.00  0.00    -0.275 OA
ATOM      4  N   UNL     1      -2.549   0.180  -0.635  1.00  0.00    -0.352 N 
ATOM      5  H   UNL     1      -2.938  -0.025   0.277  1.00  0.00     0.163 HD
BRANCH   4   6
ATOM      6  C   UNL     1      -3.431   0.680  -1.662  1.00  0.00     0.151 C 
BRANCH   6   7
ATOM      7  C   UNL     1      -4.793   0.976  -1.097  1.00  0.00    -0.029 A 
ATOM      8  C   UNL     1      -5.033   2.180  -0.418  1.00  0.00     0.005 A 
ATOM      9  C   UNL     1      -5.826   0.032  -1.193  1.00  0.00     0.005 A 
ATOM     10  C   UNL     1      -6.286   2.442   0.137  1.00  0.00     0.000 A 
ATOM     11  C   UNL     1      -7.079   0.298  -0.638  1.00  0.00     0.000 A 
ATOM     12  C   UNL     1      -7.308   1.502   0.026  1.00  0.00     0.000 A 
ENDBRANCH   6   7
ENDBRANCH   4   6
ENDBRANCH   1   2
BRANCH   1  13
ATOM     13  C   UNL     1       0.993  -0.836  -0.013  1.00  0.00     0.114 C 
BRANCH  13  14
ATOM     14  N   UNL     1       1.700  -1.320   1.185  1.00  0.00    -0.234 NA
ATOM     15  H   UNL     1       1.598  -0.609   1.924  1.00  0.00     0.147 HD
BRANCH  14  16
ATOM     16  N   UNL     1       3.085  -1.427   0.927  1.00  0.00    -0.287 N 
ATOM     17  C   UNL     1       3.931  -0.415   1.364  1.00  0.00     0.265 C 
ATOM     18  H   UNL     1       3.408  -2.174   0.319  1.00  0.00     0.185 HD
ATOM     19  O   UNL     1       3.533   0.576   1.972  1.00  0.00    -0.268 OA
BRANCH  17  20
ATOM     20  C   UNL     1       5.371  -0.562   1.030  1.00  0.00     0.044 A 
ATOM     21  C   UNL     1       5.977  -1.810   0.882  1.00  0.00     0.034 A 
ATOM     22  C   UNL     1       6.135   0.598   0.895  1.00  0.00     0.034 A 
ATOM     23  C   UNL     1       7.327  -1.839   0.580  1.00  0.00     0.112 A 
ATOM     24  C   UNL     1       7.475   0.460   0.588  1.00  0.00     0.112 A 
ATOM     25  N   UNL     1       8.085  -0.734   0.423  1.00  0.00    -0.265 NA
ENDBRANCH  17  20
ENDBRANCH  14  16
ENDBRANCH  13  14
ENDBRANCH   1  13
TORSDOF 7
