REMARK SMILES CCOC(=O)[N-]c1c[n+](N2CCOCC2)no1
REMARK SMILES IDX 4 1 5 2 3 3 2 4 1 5 6 6 7 7 8 8 17 9 9 10 16 11 10 12 11 13
REMARK SMILES IDX 15 14 12 15 14 16 13 17
REMARK H PARENT
REMARK Flexibility Score: inf
ROOT
ATOM      1  C   UNL     1       3.146   0.661  -0.430  1.00  0.00     0.235 C 
ATOM      2  O   UNL     1       3.232   0.163  -1.549  1.00  0.00    -0.273 OA
ENDROOT
BRANCH   1   3
ATOM      3  O   UNL     1       4.209   1.248   0.195  1.00  0.00    -0.478 OA
BRANCH   3   4
ATOM      4  C   UNL     1       5.424   1.244  -0.562  1.00  0.00     0.228 C 
ATOM      5  C   UNL     1       6.498   1.926   0.264  1.00  0.00     0.049 C 
ENDBRANCH   3   4
ENDBRANCH   1   3
BRANCH   1   6
ATOM      6  N   UNL     1       2.090   0.731   0.382  1.00  0.00    -0.552 NA
BRANCH   6   7
ATOM      7  C   UNL     1       0.919   0.263  -0.085  1.00  0.00     0.138 A 
ATOM      8  C   UNL     1      -0.221   0.181   0.671  1.00  0.00     0.405 A 
ATOM      9  O   UNL     1       0.633  -0.198  -1.353  1.00  0.00    -0.322 OA
ATOM     10  N   UNL     1      -1.155  -0.339  -0.187  1.00  0.00     0.065 N 
ATOM     11  N   UNL     1      -0.716  -0.587  -1.402  1.00  0.00     0.228 NA
BRANCH  10  12
ATOM     12  N   UNL     1      -2.550  -0.594   0.236  1.00  0.00    -0.149 N 
ATOM     13  C   UNL     1      -2.908  -2.006   0.018  1.00  0.00     0.215 C 
ATOM     14  C   UNL     1      -3.478   0.268  -0.518  1.00  0.00     0.215 C 
ATOM     15  C   UNL     1      -4.360  -2.248   0.437  1.00  0.00     0.187 C 
ATOM     16  C   UNL     1      -4.919  -0.016  -0.089  1.00  0.00     0.187 C 
ATOM     17  O   UNL     1      -5.243  -1.395  -0.299  1.00  0.00    -0.377 OA
ENDBRANCH  10  12
ENDBRANCH   6   7
ENDBRANCH   1   6
TORSDOF 5
