REMARK SMILES Oc1cc(Cc2ccccc2)nc(S)n1
REMARK SMILES IDX 2 1 3 2 4 3 12 4 13 5 15 6 1 7 5 9 6 10 7 11 11 12 8 13
REMARK SMILES IDX 10 14 9 15 14 16
REMARK H PARENT 1 8 14 17
REMARK Flexibility Score: inf
ROOT
ATOM      1  C   UNL     1       2.659  -0.263   1.082  1.00  0.00     0.215 A 
ATOM      2  C   UNL     1       1.534  -0.821   0.539  1.00  0.00     0.092 A 
ATOM      3  C   UNL     1       1.179  -0.335  -0.701  1.00  0.00     0.053 A 
ATOM      4  N   UNL     1       1.899   0.625  -1.326  1.00  0.00    -0.227 NA
ATOM      5  C   UNL     1       2.983   1.092  -0.683  1.00  0.00     0.188 A 
ATOM      6  N   UNL     1       3.412   0.684   0.520  1.00  0.00    -0.188 NA
ENDROOT
BRANCH   1   7
ATOM      7  O   UNL     1       3.097  -0.673   2.301  1.00  0.00    -0.493 OA
ATOM      8  H   UNL     1       3.880  -0.107   2.417  1.00  0.00     0.295 HD
ENDBRANCH   1   7
BRANCH   3   9
ATOM      9  C   UNL     1      -0.047  -0.856  -1.415  1.00  0.00     0.092 C 
BRANCH   9  10
ATOM     10  C   UNL     1      -1.349  -0.454  -0.760  1.00  0.00    -0.042 A 
ATOM     11  C   UNL     1      -2.154  -1.407  -0.119  1.00  0.00     0.004 A 
ATOM     12  C   UNL     1      -1.767   0.885  -0.781  1.00  0.00     0.004 A 
ATOM     13  C   UNL     1      -3.351  -1.026   0.490  1.00  0.00     0.000 A 
ATOM     14  C   UNL     1      -2.964   1.262  -0.172  1.00  0.00     0.000 A 
ATOM     15  C   UNL     1      -3.755   0.307   0.464  1.00  0.00     0.000 A 
ENDBRANCH   9  10
ENDBRANCH   3   9
BRANCH   5  16
ATOM     16  S   UNL     1       3.932   2.349  -1.485  1.00  0.00    -0.103 SA
ATOM     17  H   UNL     1       4.817   2.442  -0.486  1.00  0.00     0.111 HD
ENDBRANCH   5  16
TORSDOF 4
