REMARK SMILES C[C@@H](c1ccc2nccn2c1)n1nnc2ncc(-c3cnn(C)c3)nc21
REMARK SMILES IDX 12 1 13 2 14 3 15 4 16 5 17 6 18 7 25 8 26 9 2 10 1 11 3 12
REMARK SMILES IDX 11 13 4 14 10 15 5 16 9 17 6 18 8 19 7 20 19 21 24 22 20 23
REMARK SMILES IDX 22 24 21 25 23 26
REMARK H PARENT
REMARK Flexibility Score: inf
ROOT
ATOM      1  N   UNL     1      -0.777   2.267   0.263  1.00  0.00    -0.218 N 
ATOM      2  N   UNL     1      -1.183   3.223   1.137  1.00  0.00    -0.062 NA
ATOM      3  N   UNL     1      -0.232   3.359   2.060  1.00  0.00    -0.108 NA
ATOM      4  C   UNL     1       0.771   2.487   1.758  1.00  0.00     0.221 A 
ATOM      5  N   UNL     1       1.935   2.287   2.426  1.00  0.00    -0.230 NA
ATOM      6  C   UNL     1       2.711   1.335   1.839  1.00  0.00     0.143 A 
ATOM      7  C   UNL     1       2.376   0.628   0.678  1.00  0.00     0.094 A 
ATOM      8  N   UNL     1       1.210   0.833   0.004  1.00  0.00    -0.224 NA
ATOM      9  C   UNL     1       0.452   1.777   0.606  1.00  0.00     0.199 A 
ENDROOT
BRANCH   1  10
ATOM     10  C   UNL     1      -1.639   1.903  -0.857  1.00  0.00     0.140 C 
ATOM     11  C   UNL     1      -0.905   1.854  -2.203  1.00  0.00     0.039 C 
BRANCH  10  12
ATOM     12  C   UNL     1      -2.459   0.656  -0.560  1.00  0.00    -0.007 C 
ATOM     13  C   UNL     1      -3.780   0.714  -0.282  1.00  0.00     0.098 C 
ATOM     14  C   UNL     1      -1.830  -0.671  -0.575  1.00  0.00     0.011 C 
ATOM     15  N   UNL     1      -4.487  -0.457  -0.021  1.00  0.00    -0.307 N 
ATOM     16  C   UNL     1      -2.526  -1.798  -0.323  1.00  0.00     0.048 C 
ATOM     17  C   UNL     1      -5.813  -0.628   0.282  1.00  0.00     0.113 A 
ATOM     18  C   UNL     1      -3.914  -1.722  -0.031  1.00  0.00     0.136 A 
ATOM     19  C   UNL     1      -5.982  -1.984   0.439  1.00  0.00     0.132 A 
ATOM     20  N   UNL     1      -4.802  -2.655   0.241  1.00  0.00    -0.237 NA
ENDBRANCH  10  12
ENDBRANCH   1  10
BRANCH   7  21
ATOM     21  C   UNL     1       3.246  -0.379   0.097  1.00  0.00     0.040 A 
ATOM     22  C   UNL     1       4.429  -0.862   0.623  1.00  0.00     0.118 A 
ATOM     23  C   UNL     1       3.095  -1.098  -1.112  1.00  0.00     0.145 A 
ATOM     24  N   UNL     1       4.890  -1.796  -0.263  1.00  0.00    -0.275 N 
ATOM     25  N   UNL     1       4.094  -1.956  -1.333  1.00  0.00    -0.181 NA
ATOM     26  C   UNL     1       6.095  -2.583  -0.151  1.00  0.00     0.173 C 
ENDBRANCH   7  21
TORSDOF 3
