REMARK SMILES CNc1ccc(-c2nc3ccc(O)cc3s2)cc1[18F]
REMARK SMILES IDX 7 1 8 2 9 3 10 4 11 5 12 6 14 7 15 8 16 9 6 10 3 11 18 12
REMARK SMILES IDX 4 13 19 14 17 15 5 16 2 17 1 18 13 20
REMARK H PARENT 2 19 13 21
REMARK Flexibility Score: inf
ROOT
ATOM      1  C   UNL     1       0.724  -0.262   0.181  1.00  0.00     0.124 A 
ATOM      2  N   UNL     1       1.387   0.450  -0.709  1.00  0.00    -0.236 NA
ATOM      3  C   UNL     1       2.744   0.192  -0.636  1.00  0.00     0.082 A 
ATOM      4  C   UNL     1       3.741   0.779  -1.441  1.00  0.00     0.034 A 
ATOM      5  C   UNL     1       5.080   0.421  -1.255  1.00  0.00     0.048 A 
ATOM      6  C   UNL     1       5.424  -0.506  -0.282  1.00  0.00     0.117 A 
ATOM      7  C   UNL     1       4.463  -1.106   0.533  1.00  0.00     0.067 A 
ATOM      8  C   UNL     1       3.121  -0.736   0.333  1.00  0.00     0.059 A 
ATOM      9  S   UNL     1       1.714  -1.281   1.156  1.00  0.00    -0.114 S 
ENDROOT
BRANCH   1  10
ATOM     10  C   UNL     1      -0.744  -0.200   0.347  1.00  0.00     0.014 A 
ATOM     11  C   UNL     1      -3.590   0.007   0.545  1.00  0.00     0.070 A 
ATOM     12  C   UNL     1      -2.850  -0.892   1.330  1.00  0.00     0.146 A 
ATOM     13  C   UNL     1      -2.869   0.837  -0.314  1.00  0.00     0.029 A 
ATOM     14  F   UNL     1      -3.497  -1.691   2.195  1.00  0.00    -0.205 F 
ATOM     15  C   UNL     1      -1.462  -1.010   1.233  1.00  0.00     0.052 A 
ATOM     16  C   UNL     1      -1.474   0.725  -0.421  1.00  0.00     0.013 A 
BRANCH  11  17
ATOM     17  N   UNL     1      -4.974   0.120   0.748  1.00  0.00    -0.386 N 
ATOM     18  C   UNL     1      -5.807   0.585  -0.346  1.00  0.00     0.139 C 
ATOM     19  H   UNL     1      -5.336  -0.720   1.200  1.00  0.00     0.160 HD
ENDBRANCH  11  17
ENDBRANCH   1  10
BRANCH   6  20
ATOM     20  O   UNL     1       6.747  -0.813  -0.149  1.00  0.00    -0.508 OA
ATOM     21  H   UNL     1       6.850  -1.466   0.563  1.00  0.00     0.293 HD
ENDBRANCH   6  20
TORSDOF 3
