REMARK SMILES CN1C(C(=O)Nc2ccccn2)=C(O)c2ccccc2S1(=O)=O
REMARK SMILES IDX 1 1 2 2 3 3 13 4 15 5 16 6 17 7 18 8 19 9 20 10 21 11 22 12
REMARK SMILES IDX 23 13 4 14 5 15 6 16 7 18 8 19 12 20 9 21 11 22 10 23 14 24
REMARK H PARENT 6 17 14 25
REMARK Flexibility Score: inf
ROOT
ATOM      1  C   UNL     1      -0.237  -1.439  -2.616  1.00  0.00     0.164 C 
ATOM      2  N   UNL     1      -0.992  -0.935  -1.450  1.00  0.00    -0.261 N 
ATOM      3  C   UNL     1      -0.311  -0.189  -0.401  1.00  0.00     0.159 C 
ATOM      4  C   UNL     1      -1.049   0.165   0.677  1.00  0.00     0.154 C 
ATOM      5  C   UNL     1      -2.487  -0.153   0.836  1.00  0.00     0.039 A 
ATOM      6  C   UNL     1      -3.086  -0.278   2.099  1.00  0.00     0.013 A 
ATOM      7  C   UNL     1      -4.454  -0.551   2.218  1.00  0.00     0.001 A 
ATOM      8  C   UNL     1      -5.243  -0.712   1.079  1.00  0.00     0.001 A 
ATOM      9  C   UNL     1      -4.665  -0.609  -0.183  1.00  0.00     0.023 A 
ATOM     10  C   UNL     1      -3.300  -0.324  -0.284  1.00  0.00     0.099 A 
ATOM     11  S   UNL     1      -2.514  -0.284  -1.855  1.00  0.00     0.265 S 
ATOM     12  O   UNL     1      -3.202  -1.234  -2.705  1.00  0.00    -0.201 OA
ATOM     13  O   UNL     1      -2.362   1.104  -2.232  1.00  0.00    -0.201 OA
ENDROOT
BRANCH   3  14
ATOM     14  C   UNL     1       1.164   0.159  -0.546  1.00  0.00     0.277 C 
ATOM     15  O   UNL     1       1.673   0.260  -1.660  1.00  0.00    -0.267 OA
ATOM     16  N   UNL     1       1.838   0.307   0.639  1.00  0.00    -0.305 N 
ATOM     17  H   UNL     1       1.305   0.280   1.502  1.00  0.00     0.171 HD
BRANCH  16  18
ATOM     18  C   UNL     1       3.185   0.591   0.855  1.00  0.00     0.132 A 
ATOM     19  C   UNL     1       4.129   0.723  -0.154  1.00  0.00     0.047 A 
ATOM     20  N   UNL     1       3.501   0.722   2.163  1.00  0.00    -0.239 NA
ATOM     21  C   UNL     1       5.450   1.006   0.192  1.00  0.00     0.005 A 
ATOM     22  C   UNL     1       4.788   0.996   2.471  1.00  0.00     0.113 A 
ATOM     23  C   UNL     1       5.790   1.146   1.530  1.00  0.00     0.020 A 
ENDBRANCH  16  18
ENDBRANCH   3  14
BRANCH   4  24
ATOM     24  O   UNL     1      -0.498   0.898   1.719  1.00  0.00    -0.505 OA
ATOM     25  H   UNL     1      -1.197   1.464   2.099  1.00  0.00     0.293 HD
ENDBRANCH   4  24
TORSDOF 3
