REMARK SMILES CCCCc1nc(Cl)c(CO)n1Cc1ccc(-c2ccccc2-c2nnn[nH]2)cc1
REMARK SMILES IDX 5 1 6 2 7 3 8 4 9 5 12 6 4 7 3 8 2 9 1 10 13 11 14 12 15 13
REMARK SMILES IDX 30 14 16 15 29 16 17 17 18 18 19 19 23 20 20 21 22 22 21 23
REMARK SMILES IDX 24 24 25 25 28 26 26 27 27 28 10 30 11 31
REMARK H PARENT 28 29 11 32
REMARK Flexibility Score: inf
ROOT
ATOM      1  C   UNL     1      -2.610  -1.316   0.830  1.00  0.00     0.111 A 
ATOM      2  N   UNL     1      -3.156  -2.141   1.703  1.00  0.00    -0.221 NA
ATOM      3  C   UNL     1      -3.293  -3.342   1.064  1.00  0.00     0.152 A 
ATOM      4  Cl  UNL     1      -3.972  -4.701   1.832  1.00  0.00    -0.060 Cl
ATOM      5  C   UNL     1      -2.832  -3.263  -0.234  1.00  0.00     0.083 A 
ATOM      6  N   UNL     1      -2.381  -1.962  -0.371  1.00  0.00    -0.324 N 
ENDROOT
BRANCH   1   7
ATOM      7  C   UNL     1      -2.269   0.113   1.127  1.00  0.00     0.075 C 
BRANCH   7   8
ATOM      8  C   UNL     1      -3.379   1.071   0.694  1.00  0.00     0.008 C 
BRANCH   8   9
ATOM      9  C   UNL     1      -2.980   2.544   0.820  1.00  0.00    -0.003 C 
ATOM     10  C   UNL     1      -2.692   2.977   2.249  1.00  0.00     0.004 C 
ENDBRANCH   8   9
ENDBRANCH   7   8
ENDBRANCH   1   7
BRANCH   6  11
ATOM     11  C   UNL     1      -1.828  -1.371  -1.588  1.00  0.00     0.159 C 
BRANCH  11  12
ATOM     12  C   UNL     1      -0.384  -0.953  -1.448  1.00  0.00    -0.028 A 
ATOM     13  C   UNL     1       0.570  -1.761  -0.812  1.00  0.00     0.006 A 
ATOM     14  C   UNL     1       0.027   0.277  -1.980  1.00  0.00     0.006 A 
ATOM     15  C   UNL     1       1.882  -1.310  -0.637  1.00  0.00     0.009 A 
ATOM     16  C   UNL     1       1.341   0.720  -1.814  1.00  0.00     0.009 A 
ATOM     17  C   UNL     1       2.278  -0.051  -1.111  1.00  0.00    -0.018 A 
BRANCH  17  18
ATOM     18  C   UNL     1       3.636   0.457  -0.862  1.00  0.00    -0.007 A 
ATOM     19  C   UNL     1       4.718  -0.123  -1.547  1.00  0.00     0.009 A 
ATOM     20  C   UNL     1       3.900   1.501   0.059  1.00  0.00     0.028 A 
ATOM     21  C   UNL     1       6.026   0.316  -1.337  1.00  0.00     0.001 A 
ATOM     22  C   UNL     1       5.222   1.934   0.261  1.00  0.00     0.013 A 
ATOM     23  C   UNL     1       6.277   1.347  -0.435  1.00  0.00     0.001 A 
BRANCH  20  24
ATOM     24  C   UNL     1       2.839   2.131   0.836  1.00  0.00     0.180 A 
ATOM     25  N   UNL     1       1.851   2.898   0.417  1.00  0.00    -0.109 NA
ATOM     26  N   UNL     1       2.719   2.015   2.193  1.00  0.00    -0.239 N 
ATOM     27  N   UNL     1       1.118   3.228   1.533  1.00  0.00    -0.024 NA
ATOM     28  N   UNL     1       1.656   2.704   2.626  1.00  0.00    -0.048 NA
ATOM     29  H   UNL     1       3.298   1.508   2.853  1.00  0.00     0.194 HD
ENDBRANCH  20  24
ENDBRANCH  17  18
ENDBRANCH  11  12
ENDBRANCH   6  11
BRANCH   5  30
ATOM     30  C   UNL     1      -2.795  -4.281  -1.304  1.00  0.00     0.213 C 
BRANCH  30  31
ATOM     31  O   UNL     1      -3.759  -3.889  -2.270  1.00  0.00    -0.390 OA
ATOM     32  H   UNL     1      -4.629  -3.945  -1.833  1.00  0.00     0.211 HD
ENDBRANCH  30  31
ENDBRANCH   5  30
TORSDOF 9
