REMARK SMILES CN1CCC(=C2c3ccccc3C=Cc3ccccc32)CC1
REMARK SMILES IDX 1 1 2 2 3 3 4 4 5 5 6 6 21 7 22 8 7 9 8 10 12 11 9 12 11 13
REMARK SMILES IDX 10 14 13 15 20 17 15 18 19 19 16 20 18 21 17 22 14 23
REMARK H PARENT
REMARK Flexibility Score: 30.00
ROOT
ATOM      1  C   UNL     1       4.929  -0.249  -0.732  1.00  0.00     0.105 C 
ATOM      2  N   UNL     1       3.609   0.111  -1.241  1.00  0.00    -0.306 NA
ATOM      3  C   UNL     1       2.699  -1.046  -1.288  1.00  0.00     0.088 C 
ATOM      4  C   UNL     1       1.695  -1.120  -0.125  1.00  0.00     0.047 C 
ATOM      5  C   UNL     1       0.815   0.125  -0.052  1.00  0.00    -0.059 C 
ATOM      6  C   UNL     1      -0.473   0.113   0.387  1.00  0.00    -0.011 C 
ATOM      7  C   UNL     1       1.520   1.358  -0.608  1.00  0.00     0.047 C 
ATOM      8  C   UNL     1       3.048   1.242  -0.481  1.00  0.00     0.088 C 
ENDROOT
BRANCH   6   9
ATOM      9  C   UNL     1      -1.117  -1.158   0.807  1.00  0.00    -0.011 A 
ATOM     10  C   UNL     1      -0.703  -1.798   1.987  1.00  0.00     0.009 A 
ATOM     11  C   UNL     1      -2.171  -1.701   0.044  1.00  0.00    -0.018 A 
ATOM     12  C   UNL     1      -1.301  -2.991   2.391  1.00  0.00     0.001 A 
ATOM     13  C   UNL     1      -2.750  -2.911   0.458  1.00  0.00     0.009 A 
ATOM     14  C   UNL     1      -2.320  -3.550   1.624  1.00  0.00     0.001 A 
BRANCH  11  15
ATOM     15  C   UNL     1      -2.664  -1.088  -1.205  1.00  0.00     0.009 CG0
ATOM     16  G   UNL     1      -2.768   0.224  -1.481  1.00  0.00     0.000 G0
ENDBRANCH  11  15
ENDBRANCH   6   9
BRANCH   6  17
ATOM     17  C   UNL     1      -1.329   1.324   0.297  1.00  0.00    -0.011 A 
ATOM     18  C   UNL     1      -2.423   1.350  -0.592  1.00  0.00    -0.018 A 
ATOM     19  C   UNL     1      -1.098   2.417   1.148  1.00  0.00     0.009 A 
ATOM     20  C   UNL     1      -3.212   2.509  -0.663  1.00  0.00     0.009 A 
ATOM     21  C   UNL     1      -1.902   3.555   1.076  1.00  0.00     0.001 A 
ATOM     22  C   UNL     1      -2.952   3.604   0.165  1.00  0.00     0.001 A 
BRANCH  18  23
ATOM     23  C   UNL     1      -2.768   0.224  -1.481  1.00  0.00     0.009 CG0
ATOM     24  G   UNL     1      -2.664  -1.088  -1.205  1.00  0.00     0.000 G0
ENDBRANCH  18  23
ENDBRANCH   6  17
TORSDOF 0
