REMARK SMILES Cc1ccccc1-n1c(C)nc2ccccc2c1=O
REMARK SMILES IDX 8 1 9 2 10 3 11 4 12 5 13 6 14 7 15 8 16 9 17 10 18 11 19 12
REMARK SMILES IDX 7 13 1 14 2 15 3 16 4 17 6 18 5 19
REMARK H PARENT
REMARK Flexibility Score: inf
ROOT
ATOM      1  N   UNL     1      -0.140   0.202  -0.257  1.00  0.00    -0.264 N 
ATOM      2  C   UNL     1       0.423   1.469  -0.296  1.00  0.00     0.113 C 
ATOM      3  C   UNL     1      -0.477   2.688  -0.300  1.00  0.00     0.088 C 
ATOM      4  N   UNL     1       1.701   1.691  -0.303  1.00  0.00    -0.234 NA
ATOM      5  C   UNL     1       2.572   0.601  -0.242  1.00  0.00     0.078 A 
ATOM      6  C   UNL     1       3.949   0.840  -0.229  1.00  0.00     0.029 A 
ATOM      7  C   UNL     1       4.856  -0.220  -0.158  1.00  0.00     0.002 A 
ATOM      8  C   UNL     1       4.392  -1.533  -0.100  1.00  0.00     0.001 A 
ATOM      9  C   UNL     1       3.020  -1.784  -0.112  1.00  0.00     0.016 A 
ATOM     10  C   UNL     1       2.119  -0.713  -0.182  1.00  0.00     0.066 A 
ATOM     11  C   UNL     1       0.664  -0.943  -0.213  1.00  0.00     0.265 C 
ATOM     12  O   UNL     1       0.258  -2.105  -0.230  1.00  0.00    -0.268 OA
ENDROOT
BRANCH   1  13
ATOM     13  C   UNL     1      -1.550   0.009  -0.372  1.00  0.00     0.053 A 
ATOM     14  C   UNL     1      -1.699  -1.003   1.973  1.00  0.00     0.046 C 
ATOM     15  C   UNL     1      -2.306  -0.570   0.667  1.00  0.00    -0.027 A 
ATOM     16  C   UNL     1      -3.684  -0.767   0.474  1.00  0.00     0.005 A 
ATOM     17  C   UNL     1      -4.306  -0.376  -0.712  1.00  0.00     0.000 A 
ATOM     18  C   UNL     1      -2.188   0.396  -1.564  1.00  0.00     0.027 A 
ATOM     19  C   UNL     1      -3.560   0.208  -1.730  1.00  0.00     0.002 A 
ENDBRANCH   1  13
TORSDOF 1
