REMARK SMILES O=C(O[C@H]1C[N+]2(CCCOc3ccccc3)CCC1CC2)C(O)(c1cccs1)c1cccs1
REMARK SMILES IDX 4 1 5 2 6 3 17 4 18 5 19 6 20 7 21 8 3 9 2 10 1 11 22 12
REMARK SMILES IDX 23 13 24 15 25 16 28 17 26 18 27 19 29 20 30 21 33 22 31 23
REMARK SMILES IDX 32 24 7 25 8 26 9 27 10 28 11 29 12 30 16 31 13 32 15 33
REMARK SMILES IDX 14 34
REMARK H PARENT 23 14
REMARK Flexibility Score: inf
ROOT
ATOM      1  C   UNL     1       1.080  -0.565  -1.732  1.00  0.00     0.235 C 
ATOM      2  C   UNL     1      -0.202  -0.147  -0.968  1.00  0.00     0.310 C 
ATOM      3  N   UNL     1      -0.947   0.961  -1.758  1.00  0.00    -0.320 N 
ATOM      4  C   UNL     1       0.070   2.092  -2.076  1.00  0.00     0.264 C 
ATOM      5  C   UNL     1       1.124   1.568  -3.051  1.00  0.00     0.069 C 
ATOM      6  C   UNL     1       1.044   0.039  -3.150  1.00  0.00     0.047 C 
ATOM      7  C   UNL     1      -0.292  -0.317  -3.810  1.00  0.00     0.069 C 
ATOM      8  C   UNL     1      -1.453   0.381  -3.094  1.00  0.00     0.264 C 
ENDROOT
BRANCH   1   9
ATOM      9  O   UNL     1       2.261  -0.058  -1.082  1.00  0.00    -0.453 OA
BRANCH   9  10
ATOM     10  C   UNL     1       2.545  -0.588   0.155  1.00  0.00     0.349 C 
ATOM     11  O   UNL     1       1.854  -1.476   0.642  1.00  0.00    -0.248 OA
BRANCH  10  12
ATOM     12  C   UNL     1       3.787   0.114   0.778  1.00  0.00     0.231 C 
BRANCH  12  13
ATOM     13  O   UNL     1       3.642   1.521   0.499  1.00  0.00    -0.369 OA
ATOM     14  H   UNL     1       4.547   1.885   0.540  1.00  0.00     0.213 HD
ENDBRANCH  12  13
BRANCH  12  15
ATOM     15  C   UNL     1       5.025  -0.431   0.079  1.00  0.00     0.053 A 
ATOM     16  C   UNL     1       5.623  -1.671   0.252  1.00  0.00     0.019 A 
ATOM     17  S   UNL     1       5.878   0.491  -1.101  1.00  0.00    -0.145 S 
ATOM     18  C   UNL     1       6.778  -1.846  -0.565  1.00  0.00     0.012 A 
ATOM     19  C   UNL     1       7.030  -0.743  -1.346  1.00  0.00     0.065 A 
ENDBRANCH  12  15
BRANCH  12  20
ATOM     20  C   UNL     1       3.868  -0.024   2.292  1.00  0.00     0.053 A 
ATOM     21  C   UNL     1       3.404  -1.028   3.132  1.00  0.00     0.019 A 
ATOM     22  S   UNL     1       4.729   1.164   3.215  1.00  0.00    -0.145 S 
ATOM     23  C   UNL     1       3.719  -0.804   4.504  1.00  0.00     0.012 A 
ATOM     24  C   UNL     1       4.432   0.357   4.686  1.00  0.00     0.065 A 
ENDBRANCH  12  20
ENDBRANCH  10  12
ENDBRANCH   9  10
ENDBRANCH   1   9
BRANCH   3  25
ATOM     25  C   UNL     1      -2.096   1.582  -0.937  1.00  0.00     0.267 C 
BRANCH  25  26
ATOM     26  C   UNL     1      -3.122   0.571  -0.426  1.00  0.00     0.103 C 
BRANCH  26  27
ATOM     27  C   UNL     1      -2.977   0.283   1.070  1.00  0.00     0.235 C 
BRANCH  27  28
ATOM     28  O   UNL     1      -3.704  -0.894   1.411  1.00  0.00    -0.493 OA
BRANCH  28  29
ATOM     29  C   UNL     1      -5.041  -0.807   1.677  1.00  0.00     0.119 A 
ATOM     30  C   UNL     1      -5.803   0.360   1.745  1.00  0.00     0.046 A 
ATOM     31  C   UNL     1      -5.662  -2.040   1.901  1.00  0.00     0.046 A 
ATOM     32  C   UNL     1      -7.171   0.289   2.026  1.00  0.00     0.004 A 
ATOM     33  C   UNL     1      -7.027  -2.112   2.182  1.00  0.00     0.004 A 
ATOM     34  C   UNL     1      -7.783  -0.945   2.243  1.00  0.00     0.000 A 
ENDBRANCH  28  29
ENDBRANCH  27  28
ENDBRANCH  26  27
ENDBRANCH  25  26
ENDBRANCH   3  25
TORSDOF 11
