REMARK SMILES CCOc1ncc(C)c2c1[C@H](c1ccc(C#N)cc1OC)C(C(N)=O)=C(C)N2
REMARK SMILES IDX 4 1 5 2 6 3 7 4 8 5 9 6 10 7 11 8 22 9 26 10 27 11 28 12
REMARK SMILES IDX 3 14 2 15 1 16 12 17 13 18 19 19 14 20 18 21 15 22 20 23
REMARK SMILES IDX 21 24 16 25 17 26 23 27 24 28 25 29
REMARK H PARENT 28 13 24 30 24 31
REMARK Flexibility Score: inf
ROOT
ATOM      1  C   UNL     1      -0.809  -0.005   2.010  1.00  0.00     0.219 A 
ATOM      2  N   UNL     1      -1.988   0.362   2.554  1.00  0.00    -0.221 NA
ATOM      3  C   UNL     1      -3.106  -0.032   1.913  1.00  0.00     0.120 A 
ATOM      4  C   UNL     1      -3.121  -0.794   0.752  1.00  0.00    -0.009 A 
ATOM      5  C   UNL     1      -4.427  -1.179   0.129  1.00  0.00     0.048 C 
ATOM      6  C   UNL     1      -1.883  -1.185   0.221  1.00  0.00     0.052 A 
ATOM      7  C   UNL     1      -0.695  -0.749   0.838  1.00  0.00     0.050 A 
ATOM      8  C   UNL     1       0.660  -1.102   0.231  1.00  0.00     0.098 C 
ATOM      9  C   UNL     1       0.566  -2.045  -0.955  1.00  0.00     0.048 C 
ATOM     10  C   UNL     1      -0.617  -2.438  -1.473  1.00  0.00     0.022 C 
ATOM     11  C   UNL     1      -0.758  -3.437  -2.595  1.00  0.00     0.065 C 
ATOM     12  N   UNL     1      -1.808  -1.954  -0.957  1.00  0.00    -0.358 N 
ATOM     13  H   UNL     1      -2.656  -2.411  -1.271  1.00  0.00     0.166 HD
ENDROOT
BRANCH   1  14
ATOM     14  O   UNL     1       0.357   0.342   2.661  1.00  0.00    -0.478 OA
BRANCH  14  15
ATOM     15  C   UNL     1       0.214   1.305   3.706  1.00  0.00     0.228 C 
ATOM     16  C   UNL     1       0.171   2.715   3.141  1.00  0.00     0.049 C 
ENDBRANCH  14  15
ENDBRANCH   1  14
BRANCH   8  17
ATOM     17  C   UNL     1       1.512   0.134  -0.107  1.00  0.00     0.007 A 
ATOM     18  C   UNL     1       2.759   0.288   0.530  1.00  0.00     0.010 A 
ATOM     19  C   UNL     1       1.112   1.116  -1.029  1.00  0.00     0.124 A 
ATOM     20  C   UNL     1       3.575   1.389   0.260  1.00  0.00     0.020 A 
ATOM     21  C   UNL     1       1.938   2.208  -1.317  1.00  0.00     0.066 A 
ATOM     22  C   UNL     1       3.166   2.350  -0.665  1.00  0.00     0.056 A 
BRANCH  19  23
ATOM     23  O   UNL     1      -0.060   0.951  -1.717  1.00  0.00    -0.496 OA
ATOM     24  C   UNL     1      -0.985   2.008  -1.455  1.00  0.00     0.278 C 
ENDBRANCH  19  23
BRANCH  22  25
ATOM     25  C   UNL     1       4.006   3.474  -0.956  1.00  0.00     0.099 C 
ATOM     26  N   UNL     1       4.682   4.387  -1.195  1.00  0.00    -0.192 NA
ENDBRANCH  22  25
ENDBRANCH   8  17
BRANCH   9  27
ATOM     27  C   UNL     1       1.864  -2.535  -1.470  1.00  0.00     0.247 C 
ATOM     28  N   UNL     1       2.133  -2.173  -2.755  1.00  0.00    -0.366 N 
ATOM     29  O   UNL     1       2.656  -3.157  -0.779  1.00  0.00    -0.270 OA
ATOM     30  H   UNL     1       3.063  -2.360  -3.102  1.00  0.00     0.159 HD
ATOM     31  H   UNL     1       1.571  -1.475  -3.225  1.00  0.00     0.159 HD
ENDBRANCH   9  27
TORSDOF 6
