REMARK SMILES CN(Cc1cnc2nc(N)nc(N)c2n1)c1ccc(C(=O)N[C@@H](CCC(=O)O)C(=O)O)cc1
REMARK SMILES IDX 20 1 21 2 22 3 19 5 16 6 17 7 33 8 18 9 32 10 2 11 1 12 3 13
REMARK SMILES IDX 4 14 5 15 15 16 6 17 14 18 7 19 12 20 8 21 11 22 9 23 13 24
REMARK SMILES IDX 10 27 23 30 24 31 25 32 26 33 27 34 28 35 29 37 30 38 31 39
REMARK H PARENT 22 4 13 25 13 26 10 28 10 29 28 36 31 40
REMARK Flexibility Score: inf
ROOT
ATOM      1  C   UNL     1      -3.537  -1.018   0.436  1.00  0.00     0.251 C 
ATOM      2  O   UNL     1      -3.838  -2.070   0.988  1.00  0.00    -0.269 OA
ATOM      3  N   UNL     1      -4.471  -0.122  -0.046  1.00  0.00    -0.339 N 
ATOM      4  H   UNL     1      -4.162   0.486  -0.796  1.00  0.00     0.164 HD
ENDROOT
BRANCH   1   5
ATOM      5  C   UNL     1      -2.107  -0.664   0.217  1.00  0.00     0.039 A 
ATOM      6  C   UNL     1       0.640  -0.072  -0.176  1.00  0.00     0.037 A 
ATOM      7  C   UNL     1      -0.324   0.947  -0.119  1.00  0.00     0.027 A 
ATOM      8  C   UNL     1       0.188  -1.395  -0.032  1.00  0.00     0.027 A 
ATOM      9  C   UNL     1      -1.681   0.660   0.082  1.00  0.00     0.016 A 
ATOM     10  C   UNL     1      -1.164  -1.692   0.169  1.00  0.00     0.016 A 
BRANCH   6  11
ATOM     11  N   UNL     1       2.012   0.165  -0.379  1.00  0.00    -0.369 N 
ATOM     12  C   UNL     1       2.380   1.446  -0.996  1.00  0.00     0.144 C 
BRANCH  11  13
ATOM     13  C   UNL     1       2.835  -0.201   0.798  1.00  0.00     0.174 C 
BRANCH  13  14
ATOM     14  C   UNL     1       4.260  -0.526   0.407  1.00  0.00     0.079 A 
ATOM     15  C   UNL     1       4.535  -1.576  -0.450  1.00  0.00     0.139 A 
ATOM     16  N   UNL     1       5.266   0.230   0.905  1.00  0.00    -0.242 NA
ATOM     17  N   UNL     1       5.794  -1.910  -0.824  1.00  0.00    -0.233 NA
ATOM     18  C   UNL     1       6.534  -0.100   0.506  1.00  0.00     0.150 A 
ATOM     19  C   UNL     1       6.807  -1.175  -0.349  1.00  0.00     0.185 A 
ATOM     20  C   UNL     1       7.675   0.581   0.920  1.00  0.00     0.157 A 
ATOM     21  N   UNL     1       8.036  -1.515  -0.724  1.00  0.00    -0.191 NA
ATOM     22  N   UNL     1       8.922   0.259   0.546  1.00  0.00    -0.194 NA
ATOM     23  C   UNL     1       9.046  -0.796  -0.252  1.00  0.00     0.224 A 
BRANCH  20  24
ATOM     24  N   UNL     1       7.569   1.731   1.722  1.00  0.00    -0.382 N 
ATOM     25  H   UNL     1       6.904   1.593   2.478  1.00  0.00     0.158 HD
ATOM     26  H   UNL     1       8.496   2.011   2.024  1.00  0.00     0.158 HD
ENDBRANCH  20  24
BRANCH  23  27
ATOM     27  N   UNL     1      10.318  -1.148  -0.649  1.00  0.00    -0.368 N 
ATOM     28  H   UNL     1      10.936  -0.349  -0.610  1.00  0.00     0.159 HD
ATOM     29  H   UNL     1      10.284  -1.668  -1.516  1.00  0.00     0.159 HD
ENDBRANCH  23  27
ENDBRANCH  13  14
ENDBRANCH  11  13
ENDBRANCH   6  11
ENDBRANCH   1   5
BRANCH   3  30
ATOM     30  C   UNL     1      -5.892  -0.483  -0.067  1.00  0.00     0.192 C 
BRANCH  30  31
ATOM     31  C   UNL     1      -6.746   0.781   0.046  1.00  0.00     0.049 C 
BRANCH  31  32
ATOM     32  C   UNL     1      -8.222   0.477   0.305  1.00  0.00     0.125 C 
BRANCH  32  33
ATOM     33  C   UNL     1      -9.009   1.740   0.526  1.00  0.00     0.303 C 
ATOM     34  O   UNL     1      -8.610   2.887   0.426  1.00  0.00    -0.252 OA
BRANCH  33  35
ATOM     35  O   UNL     1     -10.289   1.482   0.856  1.00  0.00    -0.481 OA
ATOM     36  H   UNL     1     -10.693   2.368   0.970  1.00  0.00     0.296 HD
ENDBRANCH  33  35
ENDBRANCH  32  33
ENDBRANCH  31  32
ENDBRANCH  30  31
BRANCH  30  37
ATOM     37  C   UNL     1      -6.159  -1.206  -1.388  1.00  0.00     0.326 C 
ATOM     38  O   UNL     1      -5.593  -0.997  -2.452  1.00  0.00    -0.250 OA
BRANCH  37  39
ATOM     39  O   UNL     1      -7.153  -2.111  -1.309  1.00  0.00    -0.480 OA
ATOM     40  H   UNL     1      -7.182  -2.517  -2.201  1.00  0.00     0.296 HD
ENDBRANCH  37  39
ENDBRANCH  30  37
ENDBRANCH   3  30
TORSDOF 13
