REMARK SMILES COc1ccc(-n2nccn2)c(C(=O)N2CCC[C@@]2(C)c2nc3c(C)c(Cl)ccc3[nH]2)c1
REMARK SMILES IDX 13 1 14 2 12 3 3 4 4 5 32 6 5 7 6 8 2 9 1 10 7 11 8 12 11 13
REMARK SMILES IDX 9 14 10 15 15 16 16 17 19 18 17 19 18 20 20 21 21 22 22 23
REMARK SMILES IDX 31 24 23 25 30 26 24 28 29 29 25 30 26 31 28 32 27 33
REMARK H PARENT 31 27
REMARK Flexibility Score: inf
ROOT
ATOM      1  C   UNL     1      -1.125   0.297   0.358  1.00  0.00     0.257 C 
ATOM      2  O   UNL     1      -0.869   1.242   1.102  1.00  0.00    -0.269 OA
ENDROOT
BRANCH   1   3
ATOM      3  C   UNL     1      -2.249   0.466  -0.585  1.00  0.00     0.071 A 
ATOM      4  C   UNL     1      -2.948   1.526  -2.664  1.00  0.00     0.119 A 
ATOM      5  C   UNL     1      -4.244   1.052  -2.459  1.00  0.00     0.049 A 
ATOM      6  C   UNL     1      -1.956   1.228  -1.727  1.00  0.00     0.062 A 
ATOM      7  C   UNL     1      -4.545   0.298  -1.316  1.00  0.00     0.035 A 
ATOM      8  C   UNL     1      -3.553  -0.000  -0.362  1.00  0.00     0.099 A 
BRANCH   4   9
ATOM      9  O   UNL     1      -2.527   2.282  -3.721  1.00  0.00    -0.497 OA
ATOM     10  C   UNL     1      -3.527   2.721  -4.634  1.00  0.00     0.278 C 
ENDBRANCH   4   9
BRANCH   8  11
ATOM     11  N   UNL     1      -3.928  -0.748   0.785  1.00  0.00    -0.151 N 
ATOM     12  N   UNL     1      -5.215  -1.176   0.966  1.00  0.00    -0.157 NA
ATOM     13  N   UNL     1      -3.057  -1.129   1.755  1.00  0.00    -0.157 NA
ATOM     14  C   UNL     1      -5.140  -1.837   2.123  1.00  0.00     0.157 A 
ATOM     15  C   UNL     1      -3.831  -1.808   2.601  1.00  0.00     0.157 A 
ENDBRANCH   8  11
ENDBRANCH   1   3
BRANCH   1  16
ATOM     16  N   UNL     1      -0.363  -0.859   0.279  1.00  0.00    -0.326 N 
ATOM     17  C   UNL     1      -0.563  -1.929  -0.691  1.00  0.00     0.121 C 
ATOM     18  C   UNL     1       0.729  -1.187   1.225  1.00  0.00     0.098 C 
ATOM     19  C   UNL     1       0.677  -2.797  -0.577  1.00  0.00     0.024 C 
ATOM     20  C   UNL     1       1.023  -2.675   0.900  1.00  0.00     0.038 C 
ATOM     21  C   UNL     1       0.337  -1.077   2.705  1.00  0.00     0.043 C 
BRANCH  18  22
ATOM     22  C   UNL     1       1.939  -0.317   0.948  1.00  0.00     0.133 A 
ATOM     23  N   UNL     1       3.201  -0.701   0.844  1.00  0.00    -0.231 NA
ATOM     24  N   UNL     1       1.851   1.054   0.864  1.00  0.00    -0.340 N 
ATOM     25  C   UNL     1       3.939   0.454   0.691  1.00  0.00     0.093 A 
ATOM     26  C   UNL     1       3.105   1.568   0.680  1.00  0.00     0.066 A 
ATOM     27  H   UNL     1       0.997   1.583   1.020  1.00  0.00     0.168 HD
ATOM     28  C   UNL     1       5.337   0.611   0.588  1.00  0.00    -0.005 A 
ATOM     29  C   UNL     1       3.562   2.877   0.548  1.00  0.00     0.030 A 
ATOM     30  C   UNL     1       6.271  -0.562   0.671  1.00  0.00     0.048 C 
ATOM     31  C   UNL     1       5.812   1.936   0.465  1.00  0.00     0.046 A 
ATOM     32  C   UNL     1       4.947   3.036   0.437  1.00  0.00     0.023 A 
ATOM     33  Cl  UNL     1       7.510   2.269   0.368  1.00  0.00    -0.084 Cl
ENDBRANCH  18  22
ENDBRANCH   1  16
TORSDOF 5
