REMARK SMILES N#Cc1cccc(-c2ccc3ncc(-c4cc(F)cc(F)c4)c(N4CCC(N)CC4)c3c2)c1O
REMARK SMILES IDX 23 1 14 2 13 3 12 4 11 5 10 6 9 7 8 8 32 9 31 10 24 11 27 12
REMARK SMILES IDX 26 13 29 14 25 15 30 16 28 17 15 20 16 21 22 22 17 23 20 24
REMARK SMILES IDX 18 25 19 26 21 27 7 28 33 29 6 30 3 31 5 32 4 33 34 34 2 36
REMARK SMILES IDX 1 37
REMARK H PARENT 28 18 28 19 34 35
REMARK Flexibility Score: inf
ROOT
ATOM      1  C   UNL     1       0.666  -1.223   0.252  1.00  0.00     0.056 A 
ATOM      2  C   UNL     1       1.530  -2.333   0.397  1.00  0.00     0.024 A 
ATOM      3  C   UNL     1       0.934  -3.560   0.691  1.00  0.00     0.122 A 
ATOM      4  N   UNL     1      -0.389  -3.773   0.854  1.00  0.00    -0.255 NA
ATOM      5  C   UNL     1      -1.206  -2.726   0.716  1.00  0.00     0.072 A 
ATOM      6  C   UNL     1      -2.568  -2.939   0.880  1.00  0.00     0.029 A 
ATOM      7  C   UNL     1      -3.501  -1.909   0.743  1.00  0.00     0.011 A 
ATOM      8  C   UNL     1      -3.080  -0.620   0.420  1.00  0.00    -0.014 A 
ATOM      9  C   UNL     1      -1.706  -0.399   0.252  1.00  0.00     0.021 A 
ATOM     10  C   UNL     1      -0.744  -1.429   0.408  1.00  0.00     0.025 A 
ENDROOT
BRANCH   1  11
ATOM     11  N   UNL     1       1.105   0.092  -0.025  1.00  0.00    -0.370 N 
ATOM     12  C   UNL     1       1.505   2.737  -0.542  1.00  0.00     0.054 C 
ATOM     13  C   UNL     1       1.996   2.248   0.820  1.00  0.00     0.040 C 
ATOM     14  C   UNL     1       1.864   1.739  -1.656  1.00  0.00     0.040 C 
ATOM     15  C   UNL     1       1.340   0.909   1.178  1.00  0.00     0.118 C 
ATOM     16  C   UNL     1       2.032   0.309  -1.134  1.00  0.00     0.118 C 
BRANCH  12  17
ATOM     17  N   UNL     1       2.053   4.061  -0.851  1.00  0.00    -0.328 NA
ATOM     18  H   UNL     1       1.699   4.373  -1.756  1.00  0.00     0.119 HD
ATOM     19  H   UNL     1       1.716   4.739  -0.169  1.00  0.00     0.119 HD
ENDBRANCH  12  17
ENDBRANCH   1  11
BRANCH   2  20
ATOM     20  C   UNL     1       2.995  -2.292   0.296  1.00  0.00    -0.009 A 
ATOM     21  C   UNL     1       3.784  -1.854   1.371  1.00  0.00     0.048 A 
ATOM     22  C   UNL     1       3.646  -2.736  -0.867  1.00  0.00     0.048 A 
ATOM     23  C   UNL     1       5.173  -1.837   1.265  1.00  0.00     0.126 A 
ATOM     24  C   UNL     1       5.037  -2.710  -0.949  1.00  0.00     0.126 A 
ATOM     25  F   UNL     1       5.904  -1.408   2.302  1.00  0.00    -0.207 F 
ATOM     26  C   UNL     1       5.811  -2.260   0.109  1.00  0.00     0.078 A 
ATOM     27  F   UNL     1       5.636  -3.131  -2.071  1.00  0.00    -0.207 F 
ENDBRANCH   2  20
BRANCH   8  28
ATOM     28  C   UNL     1      -4.043   0.475   0.257  1.00  0.00     0.025 A 
ATOM     29  C   UNL     1      -4.423   0.972  -1.006  1.00  0.00     0.141 A 
ATOM     30  C   UNL     1      -4.602   1.071   1.402  1.00  0.00     0.012 A 
ATOM     31  C   UNL     1      -5.330   2.035  -1.118  1.00  0.00     0.094 A 
ATOM     32  C   UNL     1      -5.505   2.131   1.297  1.00  0.00     0.002 A 
ATOM     33  C   UNL     1      -5.867   2.612   0.040  1.00  0.00     0.023 A 
BRANCH  29  34
ATOM     34  O   UNL     1      -3.921   0.433  -2.165  1.00  0.00    -0.506 OA
ATOM     35  H   UNL     1      -3.354  -0.329  -1.956  1.00  0.00     0.293 HD
ENDBRANCH  29  34
BRANCH  31  36
ATOM     36  C   UNL     1      -5.720   2.554  -2.397  1.00  0.00     0.103 C 
ATOM     37  N   UNL     1      -6.062   3.014  -3.407  1.00  0.00    -0.192 NA
ENDBRANCH  31  36
ENDBRANCH   8  28
TORSDOF 6
