REMARK SMILES O=C(C1CCCCC1)N1CC(=O)N2CCc3ccccc3C2C1
REMARK SMILES IDX 1 1 2 2 3 3 4 4 8 5 5 6 7 7 6 8 9 9 10 10 23 11 11 12 22 13
REMARK SMILES IDX 12 14 13 15 21 16 14 17 16 18 20 19 15 20 17 21 19 22 18 23
REMARK H PARENT
REMARK Flexibility Score: inf
ROOT
ATOM      1  O   UNL     1       2.490   0.046  -2.732  1.00  0.00    -0.275 OA
ATOM      2  C   UNL     1       1.879  -0.051  -1.666  1.00  0.00     0.226 C 
ENDROOT
BRANCH   2   3
ATOM      3  C   UNL     1       2.633  -0.068  -0.331  1.00  0.00     0.078 C 
ATOM      4  C   UNL     1       2.420   1.263   0.420  1.00  0.00     0.013 C 
ATOM      5  C   UNL     1       4.129  -0.337  -0.554  1.00  0.00     0.013 C 
ATOM      6  C   UNL     1       3.642   1.728   1.217  1.00  0.00     0.001 C 
ATOM      7  C   UNL     1       4.899  -0.418   0.765  1.00  0.00     0.001 C 
ATOM      8  C   UNL     1       4.385   0.550   1.830  1.00  0.00     0.000 C 
ENDBRANCH   2   3
BRANCH   2   9
ATOM      9  N   UNL     1       0.490  -0.092  -1.640  1.00  0.00    -0.331 N 
ATOM     10  C   UNL     1      -0.182  -0.101  -2.941  1.00  0.00     0.219 C 
ATOM     11  C   UNL     1      -0.315  -0.579  -0.518  1.00  0.00     0.150 C 
ATOM     12  C   UNL     1      -1.717   0.013  -2.970  1.00  0.00     0.242 C 
ATOM     13  C   UNL     1      -1.686   0.127  -0.494  1.00  0.00     0.135 C 
ATOM     14  O   UNL     1      -2.311   0.127  -4.044  1.00  0.00    -0.273 OA
ATOM     15  N   UNL     1      -2.389  -0.120  -1.760  1.00  0.00    -0.332 N 
ATOM     16  C   UNL     1      -2.499  -0.241   0.744  1.00  0.00    -0.020 A 
ATOM     17  C   UNL     1      -3.843  -0.040  -1.744  1.00  0.00     0.125 C 
ATOM     18  C   UNL     1      -3.797  -0.780   0.638  1.00  0.00    -0.041 A 
ATOM     19  C   UNL     1      -1.977   0.000   2.028  1.00  0.00     0.006 A 
ATOM     20  C   UNL     1      -4.419  -1.005  -0.716  1.00  0.00     0.057 C 
ATOM     21  C   UNL     1      -4.508  -1.133   1.794  1.00  0.00     0.004 A 
ATOM     22  C   UNL     1      -2.700  -0.338   3.173  1.00  0.00     0.000 A 
ATOM     23  C   UNL     1      -3.960  -0.913   3.055  1.00  0.00     0.000 A 
ENDBRANCH   2   9
TORSDOF 2
