REMARK SMILES CNC(=O)c1ccc(NCC#Cc2cc3c(N[C@@H]4CCN(C)C[C@@H]4F)cccc3n2CC(F)(F)F)c(OC)c1
REMARK SMILES IDX 10 1 9 2 8 4 5 5 6 6 39 7 7 8 36 9 3 10 1 11 2 12 4 14 37 15
REMARK SMILES IDX 38 16 11 17 12 18 13 19 14 20 30 21 15 22 29 23 16 24 28 25
REMARK SMILES IDX 26 26 27 27 31 28 32 29 33 30 34 31 35 32 17 33 18 35 19 36
REMARK SMILES IDX 24 37 20 38 23 39 25 40 21 41 22 42
REMARK H PARENT 9 3 2 13 17 34
REMARK Flexibility Score: inf
ROOT
ATOM      1  C   UNL     1      -2.815   0.654   0.632  1.00  0.00     0.203 C 
ENDROOT
BRANCH   1   2
ATOM      2  N   UNL     1      -3.749  -0.151  -0.146  1.00  0.00    -0.371 N 
ATOM      3  H   UNL     1      -3.504  -0.126  -1.139  1.00  0.00     0.161 HD
BRANCH   2   4
ATOM      4  C   UNL     1      -5.114   0.199  -0.040  1.00  0.00     0.078 A 
ATOM      5  C   UNL     1      -7.867   0.767   0.121  1.00  0.00     0.043 A 
ATOM      6  C   UNL     1      -7.109   0.619   1.287  1.00  0.00     0.016 A 
ATOM      7  C   UNL     1      -7.258   0.593  -1.129  1.00  0.00     0.062 A 
ATOM      8  C   UNL     1      -5.743   0.335   1.204  1.00  0.00     0.030 A 
ATOM      9  C   UNL     1      -5.895   0.298  -1.214  1.00  0.00     0.142 A 
BRANCH   5  10
ATOM     10  C   UNL     1      -9.325   1.070   0.157  1.00  0.00     0.251 C 
ATOM     11  C   UNL     1     -11.166   2.152   1.355  1.00  0.00     0.143 C 
ATOM     12  N   UNL     1      -9.792   1.722   1.281  1.00  0.00    -0.355 N 
ATOM     13  H   UNL     1      -9.129   2.161   1.903  1.00  0.00     0.163 HD
ATOM     14  O   UNL     1     -10.040   0.771  -0.795  1.00  0.00    -0.269 OA
ENDBRANCH   5  10
BRANCH   9  15
ATOM     15  O   UNL     1      -5.204   0.122  -2.392  1.00  0.00    -0.495 OA
ATOM     16  C   UNL     1      -5.987  -0.104  -3.559  1.00  0.00     0.278 C 
ENDBRANCH   9  15
ENDBRANCH   2   4
ENDBRANCH   1   2
BRANCH   1  17
ATOM     17  C   UNL     1      -1.465   0.112   0.451  1.00  0.00    -0.075 C 
ATOM     18  C   UNL     1      -0.364  -0.353   0.334  1.00  0.00    -0.047 C 
BRANCH  18  19
ATOM     19  C   UNL     1       0.932  -0.926   0.222  1.00  0.00     0.093 A 
ATOM     20  C   UNL     1       2.094  -0.420   0.756  1.00  0.00     0.048 A 
ATOM     21  N   UNL     1       1.244  -2.101  -0.417  1.00  0.00    -0.325 N 
ATOM     22  C   UNL     1       3.159  -1.313   0.441  1.00  0.00     0.024 A 
ATOM     23  C   UNL     1       2.603  -2.354  -0.312  1.00  0.00     0.051 A 
ATOM     24  C   UNL     1       4.550  -1.308   0.729  1.00  0.00     0.044 A 
ATOM     25  C   UNL     1       3.382  -3.415  -0.799  1.00  0.00     0.027 A 
ATOM     26  C   UNL     1       5.314  -2.388   0.250  1.00  0.00     0.026 A 
ATOM     27  C   UNL     1       4.745  -3.415  -0.502  1.00  0.00     0.004 A 
BRANCH  21  28
ATOM     28  C   UNL     1       0.292  -2.942  -1.122  1.00  0.00     0.238 C 
BRANCH  28  29
ATOM     29  C   UNL     1      -0.272  -4.046  -0.257  1.00  0.00     0.406 C 
ATOM     30  F   UNL     1      -0.904  -3.581   0.838  1.00  0.00    -0.169 F 
ATOM     31  F   UNL     1       0.680  -4.917   0.144  1.00  0.00    -0.169 F 
ATOM     32  F   UNL     1      -1.180  -4.763  -0.968  1.00  0.00    -0.169 F 
ENDBRANCH  28  29
ENDBRANCH  21  28
BRANCH  24  33
ATOM     33  N   UNL     1       5.153  -0.294   1.508  1.00  0.00    -0.379 N 
ATOM     34  H   UNL     1       4.428   0.360   1.811  1.00  0.00     0.160 HD
BRANCH  33  35
ATOM     35  C   UNL     1       6.218   0.465   0.820  1.00  0.00     0.116 C 
ATOM     36  C   UNL     1       7.113   1.123   1.871  1.00  0.00     0.043 C 
ATOM     37  C   UNL     1       5.636   1.547  -0.117  1.00  0.00     0.202 C 
ATOM     38  C   UNL     1       8.301   1.820   1.192  1.00  0.00     0.086 C 
ATOM     39  C   UNL     1       6.543   2.784  -0.203  1.00  0.00     0.124 C 
ATOM     40  F   UNL     1       4.427   1.972   0.373  1.00  0.00    -0.244 F 
ATOM     41  N   UNL     1       7.982   2.534  -0.056  1.00  0.00    -0.303 NA
ATOM     42  C   UNL     1       8.559   1.888  -1.234  1.00  0.00     0.105 C 
ENDBRANCH  33  35
ENDBRANCH  24  33
ENDBRANCH  18  19
ENDBRANCH   1  17
TORSDOF 10
