REMARK SMILES CC(C)(C#N)c1cc(Cn2cncn2)cc(C(C)(C)C#N)c1
REMARK SMILES IDX 6 1 7 2 8 3 15 4 16 5 22 6 2 7 1 8 3 9 4 10 5 11 9 12 10 13
REMARK SMILES IDX 11 14 14 15 12 16 13 17 17 18 18 19 19 20 20 21 21 22
REMARK H PARENT
REMARK Flexibility Score: inf
ROOT
ATOM      1  C   UNL     1       1.467   0.414  -0.289  1.00  0.00    -0.028 A 
ATOM      2  C   UNL     1       0.652   1.473   0.158  1.00  0.00     0.011 A 
ATOM      3  C   UNL     1      -0.585   1.239   0.771  1.00  0.00    -0.026 A 
ATOM      4  C   UNL     1      -1.010  -0.083   0.957  1.00  0.00     0.011 A 
ATOM      5  C   UNL     1      -0.233  -1.179   0.533  1.00  0.00    -0.028 A 
ATOM      6  C   UNL     1       1.003  -0.902  -0.085  1.00  0.00     0.010 A 
ENDROOT
BRANCH   1   7
ATOM      7  C   UNL     1       2.827   0.724  -0.952  1.00  0.00     0.077 C 
ATOM      8  C   UNL     1       3.486  -0.492  -1.639  1.00  0.00     0.032 C 
ATOM      9  C   UNL     1       3.796   1.233   0.136  1.00  0.00     0.032 C 
BRANCH   7  10
ATOM     10  C   UNL     1       2.676   1.779  -1.992  1.00  0.00     0.073 C 
ATOM     11  N   UNL     1       2.559   2.616  -2.788  1.00  0.00    -0.197 NA
ENDBRANCH   7  10
ENDBRANCH   1   7
BRANCH   3  12
ATOM     12  C   UNL     1      -1.457   2.389   1.216  1.00  0.00     0.181 C 
BRANCH  12  13
ATOM     13  N   UNL     1      -2.646   2.500   0.392  1.00  0.00    -0.249 N 
ATOM     14  C   UNL     1      -2.747   3.034  -0.855  1.00  0.00     0.220 A 
ATOM     15  N   UNL     1      -3.848   2.079   0.837  1.00  0.00    -0.160 NA
ATOM     16  N   UNL     1      -3.996   2.977  -1.256  1.00  0.00    -0.224 NA
ATOM     17  C   UNL     1      -4.632   2.389  -0.199  1.00  0.00     0.246 A 
ENDBRANCH  12  13
ENDBRANCH   3  12
BRANCH   5  18
ATOM     18  C   UNL     1      -0.758  -2.613   0.758  1.00  0.00     0.077 C 
ATOM     19  C   UNL     1      -2.092  -2.796   0.001  1.00  0.00     0.032 C 
ATOM     20  C   UNL     1       0.202  -3.719   0.263  1.00  0.00     0.032 C 
BRANCH  18  21
ATOM     21  C   UNL     1      -0.988  -2.853   2.209  1.00  0.00     0.073 C 
ATOM     22  N   UNL     1      -1.167  -3.051   3.339  1.00  0.00    -0.197 NA
ENDBRANCH  18  21
ENDBRANCH   5  18
TORSDOF 6
