REMARK SMILES O=C1NC(=O)C(c2ccccc2)(c2ccccc2)N1
REMARK SMILES IDX 1 1 2 2 3 3 4 4 5 5 6 6 19 7 7 10 8 11 12 12 9 13 11 14
REMARK SMILES IDX 10 15 13 16 14 17 18 18 15 19 17 20 16 21
REMARK H PARENT 3 8 19 9
REMARK Flexibility Score: inf
ROOT
ATOM      1  O   UNL     1      -0.809   3.255   2.591  1.00  0.00    -0.248 OA
ATOM      2  C   UNL     1      -0.504   2.623   1.597  1.00  0.00     0.322 C 
ATOM      3  N   UNL     1      -0.300   3.129   0.365  1.00  0.00    -0.275 N 
ATOM      4  C   UNL     1      -0.106   2.128  -0.538  1.00  0.00     0.263 C 
ATOM      5  O   UNL     1       0.020   2.321  -1.741  1.00  0.00    -0.271 OA
ATOM      6  C   UNL     1      -0.096   0.757   0.212  1.00  0.00     0.172 C 
ATOM      7  N   UNL     1      -0.336   1.266   1.554  1.00  0.00    -0.316 N 
ATOM      8  H   UNL     1      -0.397   4.102   0.130  1.00  0.00     0.174 HD
ATOM      9  H   UNL     1      -0.573   0.691   2.349  1.00  0.00     0.167 HD
ENDROOT
BRANCH   6  10
ATOM     10  C   UNL     1       1.286   0.103   0.066  1.00  0.00    -0.008 A 
ATOM     11  C   UNL     1       1.683  -0.414  -1.183  1.00  0.00     0.007 A 
ATOM     12  C   UNL     1       2.192   0.000   1.138  1.00  0.00     0.007 A 
ATOM     13  C   UNL     1       2.931  -1.017  -1.351  1.00  0.00     0.000 A 
ATOM     14  C   UNL     1       3.441  -0.603   0.966  1.00  0.00     0.000 A 
ATOM     15  C   UNL     1       3.809  -1.112  -0.276  1.00  0.00     0.000 A 
ENDBRANCH   6  10
BRANCH   6  16
ATOM     16  C   UNL     1      -1.250  -0.188  -0.152  1.00  0.00    -0.008 A 
ATOM     17  C   UNL     1      -2.221   0.126  -1.119  1.00  0.00     0.007 A 
ATOM     18  C   UNL     1      -1.367  -1.426   0.516  1.00  0.00     0.007 A 
ATOM     19  C   UNL     1      -3.263  -0.761  -1.406  1.00  0.00     0.000 A 
ATOM     20  C   UNL     1      -2.408  -2.310   0.227  1.00  0.00     0.000 A 
ATOM     21  C   UNL     1      -3.356  -1.976  -0.734  1.00  0.00     0.000 A 
ENDBRANCH   6  16
TORSDOF 2
