REMARK SMILES COc1cc(NS(=O)(=O)c2ccc(N)cc2)nc(OC)n1
REMARK SMILES IDX 7 1 8 2 9 3 6 4 5 6 3 7 4 8 21 9 18 10 17 11 2 12 1 13 19 14
REMARK SMILES IDX 20 15 10 16 11 17 16 18 12 19 15 20 13 21 14 22
REMARK H PARENT 6 5 14 23 14 24
REMARK Flexibility Score: inf
ROOT
ATOM      1  S   UNL     1       1.415  -0.496   2.892  1.00  0.00     0.263 S 
ATOM      2  O   UNL     1       1.257  -1.935   2.860  1.00  0.00    -0.201 OA
ATOM      3  O   UNL     1       2.162   0.150   3.950  1.00  0.00    -0.201 OA
ENDROOT
BRANCH   1   4
ATOM      4  N   UNL     1      -0.110   0.219   2.872  1.00  0.00    -0.263 N 
ATOM      5  H   UNL     1      -0.050   1.218   3.060  1.00  0.00     0.182 HD
BRANCH   4   6
ATOM      6  C   UNL     1      -0.934  -0.053   1.761  1.00  0.00     0.150 A 
ATOM      7  C   UNL     1      -2.194  -1.364   0.347  1.00  0.00     0.221 A 
ATOM      8  C   UNL     1      -1.424  -1.300   1.479  1.00  0.00     0.116 A 
ATOM      9  N   UNL     1      -2.462  -0.308  -0.437  1.00  0.00    -0.159 NA
ATOM     10  C   UNL     1      -1.933   0.859  -0.045  1.00  0.00     0.321 A 
ATOM     11  N   UNL     1      -1.170   1.044   1.037  1.00  0.00    -0.177 NA
BRANCH   7  12
ATOM     12  O   UNL     1      -2.701  -2.608   0.026  1.00  0.00    -0.481 OA
ATOM     13  C   UNL     1      -3.501  -2.607  -1.152  1.00  0.00     0.280 C 
ENDBRANCH   7  12
BRANCH  10  14
ATOM     14  O   UNL     1      -2.157   2.000  -0.785  1.00  0.00    -0.467 OA
ATOM     15  C   UNL     1      -2.974   1.775  -1.926  1.00  0.00     0.282 C 
ENDBRANCH  10  14
ENDBRANCH   4   6
ENDBRANCH   1   4
BRANCH   1  16
ATOM     16  C   UNL     1       2.129   0.016   1.346  1.00  0.00     0.088 A 
ATOM     17  C   UNL     1       2.664   1.301   1.230  1.00  0.00     0.024 A 
ATOM     18  C   UNL     1       2.197  -0.879   0.276  1.00  0.00     0.024 A 
ATOM     19  C   UNL     1       3.232   1.701   0.018  1.00  0.00     0.027 A 
ATOM     20  C   UNL     1       2.768  -0.464  -0.930  1.00  0.00     0.027 A 
ATOM     21  C   UNL     1       3.240   0.843  -1.087  1.00  0.00     0.031 A 
BRANCH  21  22
ATOM     22  N   UNL     1       3.915   1.210  -2.256  1.00  0.00    -0.399 N 
ATOM     23  H   UNL     1       3.949   2.212  -2.417  1.00  0.00     0.156 HD
ATOM     24  H   UNL     1       3.624   0.696  -3.082  1.00  0.00     0.156 HD
ENDBRANCH  21  22
ENDBRANCH   1  16
TORSDOF 6
