REMARK SMILES Cc1cc(Nc2nc(N[C@@H](C)c3ncc(F)cn3)ncc2Cl)n[nH]1
REMARK SMILES IDX 8 1 19 2 20 3 21 4 22 5 6 6 7 7 9 8 10 10 11 11 12 12 13 13
REMARK SMILES IDX 18 14 14 15 17 16 15 17 16 18 5 19 4 21 23 22 3 23 24 24
REMARK SMILES IDX 2 25 1 27
REMARK H PARENT 9 9 5 20 24 26
REMARK Flexibility Score: inf
ROOT
ATOM      1  C   UNL     1      -0.495  -1.361  -1.876  1.00  0.00     0.225 A 
ATOM      2  N   UNL     1      -0.713  -2.643  -2.187  1.00  0.00    -0.220 NA
ATOM      3  C   UNL     1       0.259  -3.517  -1.863  1.00  0.00     0.139 A 
ATOM      4  C   UNL     1       1.430  -3.158  -1.240  1.00  0.00     0.102 A 
ATOM      5  Cl  UNL     1       2.618  -4.345  -0.869  1.00  0.00    -0.079 Cl
ATOM      6  C   UNL     1       1.581  -1.808  -0.948  1.00  0.00     0.156 A 
ATOM      7  N   UNL     1       0.611  -0.920  -1.263  1.00  0.00    -0.194 NA
ENDROOT
BRANCH   1   8
ATOM      8  N   UNL     1      -1.504  -0.481  -2.240  1.00  0.00    -0.344 N 
ATOM      9  H   UNL     1      -2.341  -1.056  -2.307  1.00  0.00     0.164 HD
BRANCH   8  10
ATOM     10  C   UNL     1      -1.680   0.659  -1.332  1.00  0.00     0.147 C 
ATOM     11  C   UNL     1      -2.638   1.651  -1.995  1.00  0.00     0.039 C 
BRANCH  10  12
ATOM     12  C   UNL     1      -2.256   0.246   0.026  1.00  0.00     0.150 A 
ATOM     13  N   UNL     1      -3.221  -0.710   0.041  1.00  0.00    -0.236 NA
ATOM     14  N   UNL     1      -1.790   0.874   1.131  1.00  0.00    -0.236 NA
ATOM     15  C   UNL     1      -3.703  -1.059   1.253  1.00  0.00     0.154 A 
ATOM     16  C   UNL     1      -2.311   0.478   2.313  1.00  0.00     0.154 A 
ATOM     17  C   UNL     1      -3.275  -0.492   2.427  1.00  0.00     0.159 A 
ATOM     18  F   UNL     1      -3.772  -0.859   3.613  1.00  0.00    -0.204 F 
ENDBRANCH  10  12
ENDBRANCH   8  10
ENDBRANCH   1   8
BRANCH   6  19
ATOM     19  N   UNL     1       2.740  -1.380  -0.260  1.00  0.00    -0.322 N 
ATOM     20  H   UNL     1       3.552  -1.930  -0.518  1.00  0.00     0.170 HD
BRANCH  19  21
ATOM     21  C   UNL     1       3.043  -0.185   0.284  1.00  0.00     0.153 A 
ATOM     22  N   UNL     1       4.303   0.178   0.539  1.00  0.00    -0.158 NA
ATOM     23  C   UNL     1       2.132   0.810   0.704  1.00  0.00     0.071 A 
ATOM     24  N   UNL     1       4.194   1.401   1.080  1.00  0.00    -0.281 N 
ATOM     25  C   UNL     1       2.904   1.831   1.212  1.00  0.00     0.034 A 
ATOM     26  H   UNL     1       5.045   1.885   1.345  1.00  0.00     0.190 HD
ATOM     27  C   UNL     1       2.555   3.142   1.797  1.00  0.00     0.066 C 
ENDBRANCH  19  21
ENDBRANCH   6  19
TORSDOF 5
