REMARK SMILES Cc1nc(NC(=O)N2CCC[C@H]2C(N)=O)sc1-c1ccnc(C(C)(C)C(F)(F)F)c1
REMARK SMILES IDX 1 1 2 2 3 3 4 4 16 5 17 6 18 7 19 8 30 9 20 10 22 11 21 12
REMARK SMILES IDX 23 13 24 14 25 15 26 16 27 17 28 18 29 19 5 20 6 21 7 23
REMARK SMILES IDX 8 24 9 25 12 26 10 27 11 28 13 29 14 30 15 31
REMARK H PARENT 5 22 14 32 14 33
REMARK Flexibility Score: inf
ROOT
ATOM      1  C   UNL     1      -0.945   0.736  -2.628  1.00  0.00     0.068 C 
ATOM      2  C   UNL     1      -0.362   0.139  -1.396  1.00  0.00     0.058 A 
ATOM      3  N   UNL     1       0.998   0.298  -1.178  1.00  0.00    -0.225 NA
ATOM      4  C   UNL     1       1.342  -0.295  -0.066  1.00  0.00     0.191 A 
ATOM      5  S   UNL     1       0.091  -1.067   0.798  1.00  0.00    -0.096 S 
ATOM      6  C   UNL     1      -1.028  -0.588  -0.417  1.00  0.00     0.059 A 
ENDROOT
BRANCH   6   7
ATOM      7  C   UNL     1      -2.441  -0.941  -0.300  1.00  0.00    -0.003 A 
ATOM      8  C   UNL     1      -2.846  -2.273  -0.257  1.00  0.00     0.030 A 
ATOM      9  C   UNL     1      -3.415   0.063  -0.249  1.00  0.00     0.034 A 
ATOM     10  C   UNL     1      -4.197  -2.539  -0.163  1.00  0.00     0.112 A 
ATOM     11  C   UNL     1      -4.766  -0.281  -0.174  1.00  0.00     0.056 A 
ATOM     12  N   UNL     1      -5.148  -1.581  -0.116  1.00  0.00    -0.260 NA
BRANCH  11  13
ATOM     13  C   UNL     1      -5.870   0.780  -0.113  1.00  0.00     0.102 C 
ATOM     14  C   UNL     1      -7.273   0.128  -0.129  1.00  0.00     0.027 C 
ATOM     15  C   UNL     1      -5.739   1.583   1.195  1.00  0.00     0.027 C 
BRANCH  13  16
ATOM     16  C   UNL     1      -5.783   1.723  -1.318  1.00  0.00     0.399 C 
ATOM     17  F   UNL     1      -4.628   2.429  -1.336  1.00  0.00    -0.170 F 
ATOM     18  F   UNL     1      -6.787   2.635  -1.300  1.00  0.00    -0.170 F 
ATOM     19  F   UNL     1      -5.869   1.063  -2.495  1.00  0.00    -0.170 F 
ENDBRANCH  13  16
ENDBRANCH  11  13
ENDBRANCH   6   7
BRANCH   4  20
ATOM     20  N   UNL     1       2.568  -0.399   0.528  1.00  0.00    -0.283 N 
ATOM     21  C   UNL     1       3.709   0.103  -0.035  1.00  0.00     0.324 C 
ATOM     22  H   UNL     1       2.605  -0.920   1.385  1.00  0.00     0.174 HD
ATOM     23  O   UNL     1       3.780   0.684  -1.116  1.00  0.00    -0.248 OA
BRANCH  21  24
ATOM     24  N   UNL     1       4.855  -0.105   0.711  1.00  0.00    -0.312 N 
ATOM     25  C   UNL     1       4.964  -0.699   2.035  1.00  0.00     0.122 C 
ATOM     26  C   UNL     1       6.139   0.468   0.283  1.00  0.00     0.176 C 
ATOM     27  C   UNL     1       6.455  -0.743   2.328  1.00  0.00     0.024 C 
ATOM     28  C   UNL     1       6.992   0.454   1.552  1.00  0.00     0.037 C 
BRANCH  26  29
ATOM     29  C   UNL     1       6.754  -0.385  -0.846  1.00  0.00     0.240 C 
ATOM     30  N   UNL     1       6.210  -0.174  -2.083  1.00  0.00    -0.368 N 
ATOM     31  O   UNL     1       7.639  -1.221  -0.685  1.00  0.00    -0.273 OA
ATOM     32  H   UNL     1       6.466  -0.826  -2.810  1.00  0.00     0.159 HD
ATOM     33  H   UNL     1       5.266   0.217  -2.128  1.00  0.00     0.159 HD
ENDBRANCH  26  29
ENDBRANCH  21  24
ENDBRANCH   4  20
TORSDOF 6
