REMARK SMILES c1cc(OCCN2CCCCC2)cc(-c2n[nH]c3ccc(-c4nc[nH]n4)cc23)c1
REMARK SMILES IDX 4 1 5 2 6 3 7 4 8 5 12 6 9 7 11 8 10 9 3 10 2 11 13 12 1 13
REMARK SMILES IDX 14 14 29 15 15 16 16 17 28 18 17 19 18 20 27 21 19 23 21 24
REMARK SMILES IDX 20 25 22 26 26 27 23 28 25 29 24 30
REMARK H PARENT 17 22 25 31
REMARK Flexibility Score: inf
ROOT
ATOM      1  O   UNL     1      -2.332   0.537   1.727  1.00  0.00    -0.492 OA
ENDROOT
BRANCH   1   2
ATOM      2  C   UNL     1      -2.611  -0.860   1.841  1.00  0.00     0.245 C 
BRANCH   2   3
ATOM      3  C   UNL     1      -4.131  -1.079   1.976  1.00  0.00     0.126 C 
BRANCH   3   4
ATOM      4  N   UNL     1      -4.972  -0.967   0.767  1.00  0.00    -0.300 NA
ATOM      5  C   UNL     1      -4.687  -2.006  -0.227  1.00  0.00     0.084 C 
ATOM      6  C   UNL     1      -4.928   0.372   0.168  1.00  0.00     0.084 C 
ATOM      7  C   UNL     1      -5.714  -1.965  -1.360  1.00  0.00     0.016 C 
ATOM      8  C   UNL     1      -5.969   0.495  -0.947  1.00  0.00     0.016 C 
ATOM      9  C   UNL     1      -5.775  -0.585  -2.006  1.00  0.00     0.003 C 
ENDBRANCH   3   4
ENDBRANCH   2   3
ENDBRANCH   1   2
BRANCH   1  10
ATOM     10  C   UNL     1      -1.020   0.902   1.597  1.00  0.00     0.120 A 
ATOM     11  C   UNL     1      -0.809   2.278   1.482  1.00  0.00     0.046 A 
ATOM     12  C   UNL     1       0.076   0.039   1.575  1.00  0.00     0.056 A 
ATOM     13  C   UNL     1       0.481   2.790   1.352  1.00  0.00     0.005 A 
ATOM     14  C   UNL     1       1.382   0.540   1.431  1.00  0.00     0.006 A 
ATOM     15  C   UNL     1       1.574   1.924   1.330  1.00  0.00     0.011 A 
BRANCH  14  16
ATOM     16  C   UNL     1       2.518  -0.384   1.406  1.00  0.00     0.100 A 
ATOM     17  N   UNL     1       2.537  -1.466   2.204  1.00  0.00    -0.174 NA
ATOM     18  C   UNL     1       3.699  -0.327   0.596  1.00  0.00     0.028 A 
ATOM     19  N   UNL     1       3.714  -2.052   1.943  1.00  0.00    -0.277 N 
ATOM     20  C   UNL     1       4.457  -1.426   0.983  1.00  0.00     0.066 A 
ATOM     21  C   UNL     1       4.204   0.513  -0.419  1.00  0.00     0.024 A 
ATOM     22  H   UNL     1       3.953  -2.893   2.455  1.00  0.00     0.190 HD
ATOM     23  C   UNL     1       5.704  -1.732   0.432  1.00  0.00     0.029 A 
ATOM     24  C   UNL     1       5.457   0.239  -0.998  1.00  0.00     0.022 A 
ATOM     25  C   UNL     1       6.189  -0.876  -0.564  1.00  0.00     0.014 A 
BRANCH  24  26
ATOM     26  C   UNL     1       5.981   1.116  -2.044  1.00  0.00     0.180 A 
ATOM     27  N   UNL     1       7.153   0.925  -2.675  1.00  0.00    -0.154 NA
ATOM     28  N   UNL     1       5.301   2.237  -2.475  1.00  0.00    -0.216 NA
ATOM     29  N   UNL     1       7.187   1.963  -3.523  1.00  0.00    -0.265 N 
ATOM     30  C   UNL     1       6.083   2.739  -3.399  1.00  0.00     0.217 A 
ATOM     31  H   UNL     1       7.982   2.072  -4.143  1.00  0.00     0.191 HD
ENDBRANCH  24  26
ENDBRANCH  14  16
ENDBRANCH   1  10
TORSDOF 6
