REMARK SMILES COc1cc2c(cc1OC)C1CC(=O)C(CC(C)C)CN1CC2
REMARK SMILES IDX 3 1 4 2 5 3 6 4 7 5 8 6 11 7 12 8 13 9 14 10 15 11 20 12
REMARK SMILES IDX 21 13 22 14 23 15 2 16 1 17 9 18 10 19 16 20 17 21 18 22
REMARK SMILES IDX 19 23
REMARK H PARENT
REMARK Flexibility Score: inf
ROOT
ATOM      1  C   UNL     1      -4.105   0.149   0.193  1.00  0.00     0.161 A 
ATOM      2  C   UNL     1      -3.451  -1.051   0.468  1.00  0.00     0.054 A 
ATOM      3  C   UNL     1      -2.155  -1.299  -0.028  1.00  0.00    -0.038 A 
ATOM      4  C   UNL     1      -1.483  -0.329  -0.806  1.00  0.00    -0.023 A 
ATOM      5  C   UNL     1      -2.159   0.866  -1.093  1.00  0.00     0.056 A 
ATOM      6  C   UNL     1      -3.435   1.107  -0.573  1.00  0.00     0.161 A 
ATOM      7  C   UNL     1      -0.099  -0.638  -1.385  1.00  0.00     0.094 C 
ATOM      8  C   UNL     1       0.816   0.556  -1.677  1.00  0.00     0.100 C 
ATOM      9  C   UNL     1       1.412   1.087  -0.397  1.00  0.00     0.139 C 
ATOM     10  O   UNL     1       1.376   2.288  -0.130  1.00  0.00    -0.299 OA
ATOM     11  C   UNL     1       2.113   0.086   0.505  1.00  0.00     0.070 C 
ATOM     12  C   UNL     1       1.130  -1.078   0.696  1.00  0.00     0.096 C 
ATOM     13  N   UNL     1       0.661  -1.635  -0.586  1.00  0.00    -0.295 NA
ATOM     14  C   UNL     1      -0.164  -2.839  -0.399  1.00  0.00     0.090 C 
ATOM     15  C   UNL     1      -1.474  -2.592   0.357  1.00  0.00     0.051 C 
ENDROOT
BRANCH   1  16
ATOM     16  O   UNL     1      -5.356   0.487   0.636  1.00  0.00    -0.493 OA
ATOM     17  C   UNL     1      -6.133  -0.547   1.227  1.00  0.00     0.278 C 
ENDBRANCH   1  16
BRANCH   6  18
ATOM     18  O   UNL     1      -4.046   2.299  -0.887  1.00  0.00    -0.493 OA
ATOM     19  C   UNL     1      -3.684   3.287   0.080  1.00  0.00     0.278 C 
ENDBRANCH   6  18
BRANCH  11  20
ATOM     20  C   UNL     1       3.463  -0.380  -0.075  1.00  0.00     0.015 C 
BRANCH  20  21
ATOM     21  C   UNL     1       4.685   0.420   0.430  1.00  0.00    -0.017 C 
ATOM     22  C   UNL     1       5.970  -0.200  -0.130  1.00  0.00     0.007 C 
ATOM     23  C   UNL     1       4.632   1.901   0.063  1.00  0.00     0.007 C 
ENDBRANCH  20  21
ENDBRANCH  11  20
TORSDOF 4
