REMARK SMILES O=C(NC1CCNCC1)[C@@H]1CC[C@@H]2CN1C(=O)N2OS(=O)(=O)O
REMARK SMILES IDX 10 1 11 2 12 3 13 4 14 5 15 6 16 7 17 8 18 9 2 10 1 11 3 12
REMARK SMILES IDX 4 14 5 15 9 16 6 17 8 18 7 19 19 21 20 22 21 23 22 24 23 25
REMARK H PARENT 3 13 7 20 23 26
REMARK Flexibility Score: inf
ROOT
ATOM      1  C   UNL     1       0.826  -0.567  -0.542  1.00  0.00     0.176 C 
ATOM      2  C   UNL     1       1.024  -0.068   0.921  1.00  0.00     0.038 C 
ATOM      3  C   UNL     1       1.931   1.188   1.056  1.00  0.00     0.032 C 
ATOM      4  C   UNL     1       3.040   1.307  -0.027  1.00  0.00     0.139 C 
ATOM      5  C   UNL     1       2.350   1.175  -1.367  1.00  0.00     0.150 C 
ATOM      6  N   UNL     1       2.019  -0.242  -1.331  1.00  0.00    -0.309 N 
ATOM      7  C   UNL     1       3.169  -0.891  -0.731  1.00  0.00     0.346 C 
ATOM      8  O   UNL     1       3.300  -2.091  -0.557  1.00  0.00    -0.246 OA
ATOM      9  N   UNL     1       3.926   0.154  -0.118  1.00  0.00    -0.178 N 
ENDROOT
BRANCH   1  10
ATOM     10  C   UNL     1      -0.515  -0.059  -1.126  1.00  0.00     0.243 C 
ATOM     11  O   UNL     1      -0.602   0.834  -1.964  1.00  0.00    -0.273 OA
ATOM     12  N   UNL     1      -1.628  -0.679  -0.584  1.00  0.00    -0.351 N 
ATOM     13  H   UNL     1      -1.505  -1.292   0.213  1.00  0.00     0.163 HD
BRANCH  12  14
ATOM     14  C   UNL     1      -2.983  -0.240  -0.906  1.00  0.00     0.084 C 
ATOM     15  C   UNL     1      -4.000  -1.367  -0.679  1.00  0.00     0.040 C 
ATOM     16  C   UNL     1      -3.336   1.029  -0.116  1.00  0.00     0.040 C 
ATOM     17  C   UNL     1      -4.638  -1.273   0.703  1.00  0.00     0.083 C 
ATOM     18  C   UNL     1      -4.834   1.114   0.139  1.00  0.00     0.083 C 
ATOM     19  N   UNL     1      -5.317  -0.002   0.953  1.00  0.00    -0.317 NA
ATOM     20  H   UNL     1      -6.323  -0.104   0.823  1.00  0.00     0.122 HD
ENDBRANCH  12  14
ENDBRANCH   1  10
BRANCH   9  21
ATOM     21  O   UNL     1       4.424  -0.271   1.146  1.00  0.00    -0.122 OA
BRANCH  21  22
ATOM     22  S   UNL     1       6.058  -0.381   1.213  1.00  0.00     0.418 S 
ATOM     23  O   UNL     1       6.467  -0.279   2.596  1.00  0.00    -0.167 OA
ATOM     24  O   UNL     1       6.507  -1.457   0.358  1.00  0.00    -0.167 OA
BRANCH  22  25
ATOM     25  O   UNL     1       6.551   0.966   0.469  1.00  0.00    -0.262 OA
ATOM     26  H   UNL     1       6.728   0.714  -0.462  1.00  0.00     0.236 HD
ENDBRANCH  22  25
ENDBRANCH  21  22
ENDBRANCH   9  21
TORSDOF 5
