REMARK SMILES CCN(CC)C(=O)N1CCN(C)CC1
REMARK SMILES IDX 3 1 6 2 7 3 8 4 9 5 10 6 11 7 12 8 13 9 14 10 2 11 1 12 4 13
REMARK SMILES IDX 5 14
REMARK H PARENT
REMARK Flexibility Score: inf
ROOT
ATOM      1  N   UNL     1      -1.815  -0.220   0.181  1.00  0.00    -0.325 N 
ATOM      2  C   UNL     1      -0.773  -1.146   0.143  1.00  0.00     0.320 C 
ATOM      3  O   UNL     1      -0.955  -2.343   0.370  1.00  0.00    -0.248 OA
ATOM      4  N   UNL     1       0.490  -0.653  -0.148  1.00  0.00    -0.322 N 
ATOM      5  C   UNL     1       0.959   0.638   0.373  1.00  0.00     0.137 C 
ATOM      6  C   UNL     1       2.362   0.545   1.008  1.00  0.00     0.106 C 
ATOM      7  N   UNL     1       3.406  -0.027   0.134  1.00  0.00    -0.303 NA
ATOM      8  C   UNL     1       4.208   1.006  -0.514  1.00  0.00     0.105 C 
ATOM      9  C   UNL     1       2.845  -0.961  -0.867  1.00  0.00     0.106 C 
ATOM     10  C   UNL     1       1.544  -1.637  -0.405  1.00  0.00     0.137 C 
ENDROOT
BRANCH   1  11
ATOM     11  C   UNL     1      -3.062  -0.670   0.806  1.00  0.00     0.118 C 
ATOM     12  C   UNL     1      -3.966  -1.477  -0.117  1.00  0.00     0.027 C 
ENDBRANCH   1  11
BRANCH   1  13
ATOM     13  C   UNL     1      -1.918   0.839  -0.831  1.00  0.00     0.118 C 
ATOM     14  C   UNL     1      -2.247   2.202  -0.242  1.00  0.00     0.027 C 
ENDBRANCH   1  13
TORSDOF 2
