REMARK SMILES CN(c1nccc(=O)[nH]1)C1CCN(c2nc3ccccc3n2Cc2ccc(F)cc2)CC1
REMARK SMILES IDX 10 1 11 2 12 3 13 4 31 5 32 6 2 7 1 8 3 9 4 10 9 11 5 12
REMARK SMILES IDX 7 13 6 15 8 16 14 17 15 18 22 19 16 20 21 21 17 22 20 23
REMARK SMILES IDX 18 24 19 25 23 26 24 27 25 28 30 29 26 30 29 31 27 32 28 33
REMARK H PARENT 9 14
REMARK Flexibility Score: inf
ROOT
ATOM      1  C   UNL     1       2.397   0.494   0.152  1.00  0.00     0.088 C 
ATOM      2  C   UNL     1       1.353   1.475  -0.406  1.00  0.00     0.046 C 
ATOM      3  C   UNL     1       0.237   0.749  -1.149  1.00  0.00     0.122 C 
ATOM      4  N   UNL     1      -0.385  -0.260  -0.275  1.00  0.00    -0.342 N 
ATOM      5  C   UNL     1       0.549  -1.170   0.420  1.00  0.00     0.122 C 
ATOM      6  C   UNL     1       1.994  -0.972  -0.018  1.00  0.00     0.046 C 
ENDROOT
BRANCH   1   7
ATOM      7  N   UNL     1       3.754   0.737  -0.401  1.00  0.00    -0.342 N 
ATOM      8  C   UNL     1       3.903   0.664  -1.853  1.00  0.00     0.147 C 
BRANCH   7   9
ATOM      9  C   UNL     1       4.852   0.647   0.446  1.00  0.00     0.205 C 
ATOM     10  N   UNL     1       4.728   0.301   1.696  1.00  0.00    -0.223 NA
ATOM     11  N   UNL     1       6.090   0.942  -0.070  1.00  0.00    -0.293 N 
ATOM     12  C   UNL     1       5.853   0.232   2.470  1.00  0.00     0.121 C 
ATOM     13  C   UNL     1       7.244   0.912   0.656  1.00  0.00     0.252 C 
ATOM     14  H   UNL     1       6.189   1.255  -1.019  1.00  0.00     0.173 HD
ATOM     15  C   UNL     1       7.091   0.503   2.054  1.00  0.00     0.092 C 
ATOM     16  O   UNL     1       8.337   1.206   0.188  1.00  0.00    -0.269 OA
ENDBRANCH   7   9
ENDBRANCH   1   7
BRANCH   4  17
ATOM     17  C   UNL     1      -1.468  -0.870  -0.837  1.00  0.00     0.206 A 
ATOM     18  N   UNL     1      -1.630  -1.173  -2.105  1.00  0.00    -0.213 NA
ATOM     19  N   UNL     1      -2.583  -1.215  -0.101  1.00  0.00    -0.306 N 
ATOM     20  C   UNL     1      -2.848  -1.793  -2.189  1.00  0.00     0.091 A 
ATOM     21  C   UNL     1      -3.470  -1.852  -0.944  1.00  0.00     0.070 A 
ATOM     22  C   UNL     1      -3.492  -2.340  -3.309  1.00  0.00     0.031 A 
ATOM     23  C   UNL     1      -4.725  -2.446  -0.758  1.00  0.00     0.028 A 
ATOM     24  C   UNL     1      -4.747  -2.937  -3.144  1.00  0.00     0.002 A 
ATOM     25  C   UNL     1      -5.350  -2.989  -1.887  1.00  0.00     0.002 A 
BRANCH  19  26
ATOM     26  C   UNL     1      -2.803  -0.939   1.308  1.00  0.00     0.161 C 
BRANCH  26  27
ATOM     27  C   UNL     1      -3.297   0.470   1.540  1.00  0.00    -0.028 A 
ATOM     28  C   UNL     1      -4.653   0.795   1.367  1.00  0.00     0.008 A 
ATOM     29  C   UNL     1      -2.398   1.483   1.915  1.00  0.00     0.008 A 
ATOM     30  C   UNL     1      -5.099   2.102   1.574  1.00  0.00     0.039 A 
ATOM     31  C   UNL     1      -2.846   2.789   2.121  1.00  0.00     0.039 A 
ATOM     32  C   UNL     1      -4.192   3.085   1.950  1.00  0.00     0.123 A 
ATOM     33  F   UNL     1      -4.622   4.339   2.147  1.00  0.00    -0.207 F 
ENDBRANCH  26  27
ENDBRANCH  19  26
ENDBRANCH   4  17
TORSDOF 5
