REMARK SMILES Oc1ccc2c3c1O[C@H]1[C@@H](O)CC[C@@]4(O)[C@@H](C2)N(CC2CCC2)CC[C@]314
REMARK SMILES IDX 2 1 3 2 4 3 5 4 6 5 7 6 8 7 9 8 10 9 12 10 13 11 14 12 16 13
REMARK SMILES IDX 17 14 18 15 24 16 25 17 26 18 1 19 15 21 11 23 19 25 20 26
REMARK SMILES IDX 21 27 23 28 22 29
REMARK H PARENT 1 20 15 22 11 24
REMARK Flexibility Score: inf
ROOT
ATOM      1  C   UNL     1      -3.337   2.226  -1.387  1.00  0.00     0.158 A 
ATOM      2  C   UNL     1      -2.290   2.985  -1.922  1.00  0.00     0.050 A 
ATOM      3  C   UNL     1      -0.952   2.565  -1.769  1.00  0.00     0.008 A 
ATOM      4  C   UNL     1      -0.653   1.410  -1.043  1.00  0.00    -0.038 A 
ATOM      5  C   UNL     1      -1.714   0.740  -0.456  1.00  0.00     0.014 A 
ATOM      6  C   UNL     1      -3.029   1.088  -0.674  1.00  0.00     0.165 A 
ATOM      7  O   UNL     1      -3.909   0.159  -0.186  1.00  0.00    -0.482 OA
ATOM      8  C   UNL     1      -3.075  -0.978   0.232  1.00  0.00     0.215 C 
ATOM      9  C   UNL     1      -3.225  -2.147  -0.766  1.00  0.00     0.156 C 
ATOM     10  C   UNL     1      -2.348  -1.994  -2.005  1.00  0.00     0.039 C 
ATOM     11  C   UNL     1      -0.851  -1.842  -1.692  1.00  0.00     0.041 C 
ATOM     12  C   UNL     1      -0.535  -1.377  -0.246  1.00  0.00     0.094 C 
ATOM     13  C   UNL     1       0.802  -0.534  -0.149  1.00  0.00     0.094 C 
ATOM     14  C   UNL     1       0.722   0.792  -0.989  1.00  0.00     0.058 C 
ATOM     15  N   UNL     1       1.166  -0.129   1.240  1.00  0.00    -0.297 NA
ATOM     16  C   UNL     1       0.152  -0.438   2.253  1.00  0.00     0.086 C 
ATOM     17  C   UNL     1      -1.284  -0.096   1.837  1.00  0.00     0.034 C 
ATOM     18  C   UNL     1      -1.621  -0.494   0.378  1.00  0.00     0.070 C 
ENDROOT
BRANCH   1  19
ATOM     19  O   UNL     1      -4.640   2.572  -1.584  1.00  0.00    -0.504 OA
ATOM     20  H   UNL     1      -4.669   3.436  -2.026  1.00  0.00     0.293 HD
ENDBRANCH   1  19
BRANCH  12  21
ATOM     21  O   UNL     1      -0.439  -2.594   0.520  1.00  0.00    -0.387 OA
ATOM     22  H   UNL     1       0.502  -2.869   0.520  1.00  0.00     0.211 HD
ENDBRANCH  12  21
BRANCH   9  23
ATOM     23  O   UNL     1      -4.590  -2.282  -1.171  1.00  0.00    -0.389 OA
ATOM     24  H   UNL     1      -4.935  -1.371  -1.266  1.00  0.00     0.211 HD
ENDBRANCH   9  23
BRANCH  15  25
ATOM     25  C   UNL     1       2.491  -0.607   1.668  1.00  0.00     0.088 C 
BRANCH  25  26
ATOM     26  C   UNL     1       3.623   0.122   0.944  1.00  0.00     0.003 C 
ATOM     27  C   UNL     1       5.045  -0.127   1.521  1.00  0.00     0.005 C 
ATOM     28  C   UNL     1       3.844   1.619   1.299  1.00  0.00     0.005 C 
ATOM     29  C   UNL     1       5.357   1.347   1.194  1.00  0.00     0.001 C 
ENDBRANCH  25  26
ENDBRANCH  15  25
TORSDOF 5
