REMARK SMILES Nc1[nH]ncc1-c1cc(Cl)ccc1Oc1cc(F)c(S(=O)(=O)Nc2cscn2)cc1Cl
REMARK SMILES IDX 15 1 16 2 17 3 18 4 19 5 29 6 30 7 31 8 14 9 13 10 7 11 8 12
REMARK SMILES IDX 9 13 12 14 10 15 11 16 6 17 2 18 3 19 5 20 4 21 1 23 20 26
REMARK SMILES IDX 21 27 22 28 23 29 24 31 25 32 28 33 26 34 27 35
REMARK H PARENT 3 22 1 24 1 25 23 30
REMARK Flexibility Score: inf
ROOT
ATOM      1  C   UNL     1      -0.382  -1.249  -0.312  1.00  0.00     0.149 A 
ATOM      2  C   UNL     1       0.173   0.007  -0.579  1.00  0.00     0.089 A 
ATOM      3  C   UNL     1       1.497   0.101  -1.001  1.00  0.00     0.147 A 
ATOM      4  F   UNL     1       2.000   1.319  -1.233  1.00  0.00    -0.205 F 
ATOM      5  C   UNL     1       2.267  -1.044  -1.165  1.00  0.00     0.125 A 
ATOM      6  C   UNL     1       1.711  -2.307  -0.930  1.00  0.00     0.049 A 
ATOM      7  C   UNL     1       0.384  -2.406  -0.508  1.00  0.00     0.085 A 
ATOM      8  Cl  UNL     1      -0.277  -3.974  -0.221  1.00  0.00    -0.080 Cl
ENDROOT
BRANCH   1   9
ATOM      9  O   UNL     1      -1.699  -1.384   0.069  1.00  0.00    -0.455 OA
BRANCH   9  10
ATOM     10  C   UNL     1      -2.116  -0.603   1.126  1.00  0.00     0.135 A 
ATOM     11  C   UNL     1      -3.159   0.323   0.943  1.00  0.00     0.031 A 
ATOM     12  C   UNL     1      -3.576   1.095   2.037  1.00  0.00     0.033 A 
ATOM     13  C   UNL     1      -2.981   0.923   3.288  1.00  0.00     0.041 A 
ATOM     14  C   UNL     1      -1.538  -0.787   2.389  1.00  0.00     0.049 A 
ATOM     15  Cl  UNL     1      -3.510   1.872   4.622  1.00  0.00    -0.084 Cl
ATOM     16  C   UNL     1      -1.968  -0.016   3.470  1.00  0.00     0.024 A 
BRANCH  11  17
ATOM     17  C   UNL     1      -3.795   0.535  -0.345  1.00  0.00     0.047 A 
ATOM     18  C   UNL     1      -4.403  -0.431  -1.122  1.00  0.00     0.126 A 
ATOM     19  N   UNL     1      -4.896   0.231  -2.217  1.00  0.00    -0.263 N 
ATOM     20  C   UNL     1      -3.989   1.737  -1.067  1.00  0.00     0.146 A 
ATOM     21  N   UNL     1      -4.644   1.552  -2.216  1.00  0.00    -0.182 NA
ATOM     22  H   UNL     1      -5.421  -0.160  -2.990  1.00  0.00     0.192 HD
BRANCH  18  23
ATOM     23  N   UNL     1      -4.576  -1.762  -0.965  1.00  0.00    -0.384 N 
ATOM     24  H   UNL     1      -4.006  -2.244  -0.269  1.00  0.00     0.158 HD
ATOM     25  H   UNL     1      -4.787  -2.366  -1.756  1.00  0.00     0.158 HD
ENDBRANCH  18  23
ENDBRANCH  11  17
ENDBRANCH   9  10
ENDBRANCH   1   9
BRANCH   5  26
ATOM     26  S   UNL     1       3.936  -0.903  -1.723  1.00  0.00     0.266 S 
ATOM     27  O   UNL     1       3.972   0.055  -2.804  1.00  0.00    -0.201 OA
ATOM     28  O   UNL     1       4.427  -2.252  -1.918  1.00  0.00    -0.201 OA
BRANCH  26  29
ATOM     29  N   UNL     1       4.714  -0.337  -0.361  1.00  0.00    -0.263 N 
ATOM     30  H   UNL     1       5.256  -1.050   0.126  1.00  0.00     0.182 HD
BRANCH  29  31
ATOM     31  C   UNL     1       5.193   0.952  -0.163  1.00  0.00     0.150 A 
ATOM     32  C   UNL     1       4.903   2.121  -0.838  1.00  0.00     0.114 A 
ATOM     33  N   UNL     1       6.087   1.102   0.880  1.00  0.00    -0.227 NA
ATOM     34  S   UNL     1       5.773   3.437  -0.162  1.00  0.00    -0.128 S 
ATOM     35  C   UNL     1       6.463   2.358   0.974  1.00  0.00     0.178 A 
ENDBRANCH  29  31
ENDBRANCH  26  29
ENDBRANCH   5  26
TORSDOF 7
