REMARK SMILES CN1CCN(CCCN2c3ccccc3Sc3ccc(C(F)(F)F)cc32)CC1
REMARK SMILES IDX 7 1 6 2 5 3 1 4 2 5 3 6 28 7 4 8 27 9 8 10 9 11 10 12 26 13
REMARK SMILES IDX 11 14 15 15 17 16 25 17 12 18 14 19 16 20 18 21 20 22 13 23
REMARK SMILES IDX 19 24 21 25 22 26 23 27 24 28
REMARK H PARENT
REMARK Flexibility Score: inf
ROOT
ATOM      1  C   UNL     1       0.260  -0.222  -0.374  1.00  0.00     0.037 C 
ENDROOT
BRANCH   1   2
ATOM      2  C   UNL     1       1.294   0.318  -1.369  1.00  0.00     0.086 C 
BRANCH   2   3
ATOM      3  N   UNL     1       2.602   0.568  -0.755  1.00  0.00    -0.301 NA
ATOM      4  C   UNL     1       5.593   0.110   0.512  1.00  0.00     0.105 C 
ATOM      5  N   UNL     1       5.185   1.463   0.128  1.00  0.00    -0.304 NA
ATOM      6  C   UNL     1       4.903   1.537  -1.315  1.00  0.00     0.099 C 
ATOM      7  C   UNL     1       3.988   1.888   0.887  1.00  0.00     0.099 C 
ATOM      8  C   UNL     1       3.639   0.771  -1.791  1.00  0.00     0.100 C 
ATOM      9  C   UNL     1       2.613   1.698   0.186  1.00  0.00     0.100 C 
ENDBRANCH   2   3
ENDBRANCH   1   2
BRANCH   1  10
ATOM     10  C   UNL     1      -1.034  -0.611  -1.105  1.00  0.00     0.124 C 
BRANCH  10  11
ATOM     11  N   UNL     1      -2.087  -1.060  -0.165  1.00  0.00    -0.340 N 
ATOM     12  C   UNL     1      -2.173  -2.461   0.090  1.00  0.00     0.055 A 
ATOM     13  C   UNL     1      -3.002  -0.077   0.312  1.00  0.00     0.056 A 
ATOM     14  C   UNL     1      -1.113  -3.348  -0.206  1.00  0.00     0.027 A 
ATOM     15  C   UNL     1      -3.317  -3.037   0.681  1.00  0.00     0.036 A 
ATOM     16  C   UNL     1      -4.220  -0.434   0.924  1.00  0.00     0.036 A 
ATOM     17  C   UNL     1      -2.731   1.308   0.226  1.00  0.00     0.040 A 
ATOM     18  C   UNL     1      -1.183  -4.723   0.054  1.00  0.00     0.002 A 
ATOM     19  C   UNL     1      -3.384  -4.421   0.938  1.00  0.00     0.017 A 
ATOM     20  S   UNL     1      -4.770  -2.112   1.115  1.00  0.00    -0.086 SA
ATOM     21  C   UNL     1      -5.109   0.549   1.400  1.00  0.00     0.018 A 
ATOM     22  C   UNL     1      -3.609   2.298   0.712  1.00  0.00     0.058 A 
ATOM     23  C   UNL     1      -2.323  -5.262   0.625  1.00  0.00     0.001 A 
ATOM     24  C   UNL     1      -4.811   1.904   1.294  1.00  0.00     0.014 A 
BRANCH  22  25
ATOM     25  C   UNL     1      -3.259   3.759   0.569  1.00  0.00     0.416 C 
ATOM     26  F   UNL     1      -1.927   4.001   0.730  1.00  0.00    -0.166 F 
ATOM     27  F   UNL     1      -3.580   4.248  -0.660  1.00  0.00    -0.166 F 
ATOM     28  F   UNL     1      -3.894   4.559   1.470  1.00  0.00    -0.166 F 
ENDBRANCH  22  25
ENDBRANCH  10  11
ENDBRANCH   1  10
TORSDOF 5
