REMARK SMILES CC(C1=C(CCN(C)C)Cc2ccccc21)c1ccccn1
REMARK SMILES IDX 3 1 4 2 10 3 11 4 12 5 13 6 14 7 15 8 16 9 2 10 1 11 17 12
REMARK SMILES IDX 18 13 22 14 19 15 21 16 20 17 5 18 6 19 7 20 8 21 9 22
REMARK H PARENT
REMARK Flexibility Score: inf
ROOT
ATOM      1  C   UNL     1      -0.472   0.012   0.222  1.00  0.00    -0.032 C 
ATOM      2  C   UNL     1       0.764  -0.034  -0.330  1.00  0.00    -0.060 C 
ATOM      3  C   UNL     1       1.327   1.346  -0.614  1.00  0.00     0.067 C 
ATOM      4  C   UNL     1       0.202   2.219  -0.160  1.00  0.00    -0.036 A 
ATOM      5  C   UNL     1       0.130   3.604  -0.184  1.00  0.00     0.004 A 
ATOM      6  C   UNL     1      -1.027   4.212   0.302  1.00  0.00     0.000 A 
ATOM      7  C   UNL     1      -2.083   3.434   0.799  1.00  0.00     0.001 A 
ATOM      8  C   UNL     1      -1.994   2.037   0.818  1.00  0.00     0.009 A 
ATOM      9  C   UNL     1      -0.843   1.431   0.336  1.00  0.00    -0.018 A 
ENDROOT
BRANCH   1  10
ATOM     10  C   UNL     1      -1.362  -1.131   0.653  1.00  0.00     0.066 C 
ATOM     11  C   UNL     1      -1.451  -1.202   2.185  1.00  0.00     0.019 C 
BRANCH  10  12
ATOM     12  C   UNL     1      -2.723  -1.147  -0.042  1.00  0.00     0.048 A 
ATOM     13  C   UNL     1      -2.787  -1.244  -1.434  1.00  0.00     0.024 A 
ATOM     14  N   UNL     1      -3.845  -1.080   0.721  1.00  0.00    -0.261 NA
ATOM     15  C   UNL     1      -4.031  -1.262  -2.059  1.00  0.00     0.003 A 
ATOM     16  C   UNL     1      -5.038  -1.100   0.088  1.00  0.00     0.111 A 
ATOM     17  C   UNL     1      -5.181  -1.188  -1.285  1.00  0.00     0.020 A 
ENDBRANCH  10  12
ENDBRANCH   1  10
BRANCH   2  18
ATOM     18  C   UNL     1       1.579  -1.242  -0.701  1.00  0.00     0.047 C 
BRANCH  18  19
ATOM     19  C   UNL     1       2.807  -1.484   0.201  1.00  0.00     0.088 C 
BRANCH  19  20
ATOM     20  N   UNL     1       3.915  -0.527   0.020  1.00  0.00    -0.309 NA
ATOM     21  C   UNL     1       4.879  -0.663   1.116  1.00  0.00     0.104 C 
ATOM     22  C   UNL     1       4.598  -0.711  -1.262  1.00  0.00     0.104 C 
ENDBRANCH  19  20
ENDBRANCH  18  19
ENDBRANCH   2  18
TORSDOF 5
