REMARK SMILES CC(C)COCC(CN(Cc1ccccc1)c1ccccc1)N1CCCC1
REMARK SMILES IDX 7 1 6 2 5 3 4 4 2 5 1 6 3 7 8 8 9 9 10 10 11 11 12 12 16 13
REMARK SMILES IDX 13 14 15 15 14 16 17 17 18 18 22 19 19 20 21 21 20 22 23 23
REMARK SMILES IDX 24 24 27 25 25 26 26 27
REMARK H PARENT
REMARK Flexibility Score: inf
ROOT
ATOM      1  C   UNL     1      -0.945   0.730  -0.917  1.00  0.00     0.101 C 
ENDROOT
BRANCH   1   2
ATOM      2  C   UNL     1      -1.295  -0.780  -0.690  1.00  0.00     0.181 C 
BRANCH   2   3
ATOM      3  O   UNL     1      -1.735  -1.123   0.631  1.00  0.00    -0.379 OA
BRANCH   3   4
ATOM      4  C   UNL     1      -3.069  -0.718   0.922  1.00  0.00     0.163 C 
BRANCH   4   5
ATOM      5  C   UNL     1      -3.504  -1.302   2.274  1.00  0.00     0.009 C 
ATOM      6  C   UNL     1      -2.611  -0.796   3.409  1.00  0.00     0.010 C 
ATOM      7  C   UNL     1      -3.501  -2.832   2.249  1.00  0.00     0.010 C 
ENDBRANCH   4   5
ENDBRANCH   3   4
ENDBRANCH   2   3
ENDBRANCH   1   2
BRANCH   1   8
ATOM      8  C   UNL     1       0.021   1.171   0.233  1.00  0.00     0.138 C 
BRANCH   8   9
ATOM      9  N   UNL     1       1.307   0.436   0.186  1.00  0.00    -0.366 N 
BRANCH   9  10
ATOM     10  C   UNL     1       2.026   0.361   1.471  1.00  0.00     0.152 C 
BRANCH  10  11
ATOM     11  C   UNL     1       2.567  -1.031   1.721  1.00  0.00    -0.029 A 
ATOM     12  C   UNL     1       1.688  -2.112   1.886  1.00  0.00     0.005 A 
ATOM     13  C   UNL     1       3.948  -1.262   1.786  1.00  0.00     0.005 A 
ATOM     14  C   UNL     1       2.182  -3.397   2.118  1.00  0.00     0.000 A 
ATOM     15  C   UNL     1       4.440  -2.548   2.017  1.00  0.00     0.000 A 
ATOM     16  C   UNL     1       3.557  -3.614   2.184  1.00  0.00     0.000 A 
ENDBRANCH  10  11
ENDBRANCH   9  10
BRANCH   9  17
ATOM     17  C   UNL     1       2.161   0.725  -0.893  1.00  0.00     0.037 A 
ATOM     18  C   UNL     1       2.443   2.027  -1.328  1.00  0.00     0.026 A 
ATOM     19  C   UNL     1       2.778  -0.339  -1.566  1.00  0.00     0.026 A 
ATOM     20  C   UNL     1       3.303   2.255  -2.408  1.00  0.00     0.002 A 
ATOM     21  C   UNL     1       3.638  -0.117  -2.645  1.00  0.00     0.002 A 
ATOM     22  C   UNL     1       3.899   1.183  -3.067  1.00  0.00     0.000 A 
ENDBRANCH   9  17
ENDBRANCH   8   9
ENDBRANCH   1   8
BRANCH   1  23
ATOM     23  N   UNL     1      -2.186   1.568  -1.064  1.00  0.00    -0.296 NA
ATOM     24  C   UNL     1      -1.946   3.019  -1.140  1.00  0.00     0.085 C 
ATOM     25  C   UNL     1      -2.872   1.303  -2.349  1.00  0.00     0.085 C 
ATOM     26  C   UNL     1      -1.515   3.291  -2.571  1.00  0.00     0.017 C 
ATOM     27  C   UNL     1      -2.210   2.209  -3.383  1.00  0.00     0.017 C 
ENDBRANCH   1  23
TORSDOF 10
