REMARK SMILES CC(C)NC(=O)COc1cccc(-c2nc(Nc3ccc4[nH]ncc4c3)c3ccccc3n2)c1
REMARK SMILES IDX 9 1 10 2 11 3 12 4 13 5 34 6 8 7 7 8 5 9 4 10 6 12 2 13 1 14
REMARK SMILES IDX 3 15 14 16 33 17 15 18 32 19 16 20 27 21 31 22 28 23 30 24
REMARK SMILES IDX 29 25 17 26 18 28 19 29 26 30 20 31 25 32 21 33 24 34 22 35
REMARK SMILES IDX 23 36
REMARK H PARENT 4 11 17 27 22 37
REMARK Flexibility Score: inf
ROOT
ATOM      1  C   UNL     1       1.783   0.175   0.450  1.00  0.00     0.120 A 
ATOM      2  C   UNL     1       2.755   0.990   1.021  1.00  0.00     0.046 A 
ATOM      3  C   UNL     1       2.403   2.240   1.532  1.00  0.00     0.005 A 
ATOM      4  C   UNL     1       1.077   2.679   1.466  1.00  0.00     0.012 A 
ATOM      5  C   UNL     1       0.071   1.887   0.884  1.00  0.00     0.023 A 
ATOM      6  C   UNL     1       0.460   0.631   0.377  1.00  0.00     0.058 A 
ENDROOT
BRANCH   1   7
ATOM      7  O   UNL     1       1.988  -1.063  -0.091  1.00  0.00    -0.484 OA
BRANCH   7   8
ATOM      8  C   UNL     1       3.189  -1.739   0.236  1.00  0.00     0.329 C 
BRANCH   8   9
ATOM      9  C   UNL     1       4.414  -1.420  -0.634  1.00  0.00     0.258 C 
ATOM     10  N   UNL     1       5.538  -2.152  -0.279  1.00  0.00    -0.351 N 
ATOM     11  H   UNL     1       5.409  -2.958   0.319  1.00  0.00     0.163 HD
ATOM     12  O   UNL     1       4.416  -0.594  -1.541  1.00  0.00    -0.271 OA
BRANCH  10  13
ATOM     13  C   UNL     1       6.766  -2.078  -1.059  1.00  0.00     0.075 C 
ATOM     14  C   UNL     1       7.958  -2.476  -0.194  1.00  0.00     0.030 C 
ATOM     15  C   UNL     1       6.672  -2.969  -2.296  1.00  0.00     0.030 C 
ENDBRANCH  10  13
ENDBRANCH   8   9
ENDBRANCH   7   8
ENDBRANCH   1   7
BRANCH   5  16
ATOM     16  C   UNL     1      -1.329   2.349   0.804  1.00  0.00     0.162 A 
ATOM     17  N   UNL     1      -1.612   3.584   1.252  1.00  0.00    -0.228 NA
ATOM     18  N   UNL     1      -2.236   1.507   0.289  1.00  0.00    -0.210 NA
ATOM     19  C   UNL     1      -2.881   3.991   1.182  1.00  0.00     0.076 A 
ATOM     20  C   UNL     1      -3.511   1.924   0.208  1.00  0.00     0.142 A 
ATOM     21  C   UNL     1      -3.908   3.194   0.664  1.00  0.00     0.043 A 
ATOM     22  C   UNL     1      -3.194   5.264   1.645  1.00  0.00     0.029 A 
ATOM     23  C   UNL     1      -5.236   3.695   0.644  1.00  0.00     0.014 A 
ATOM     24  C   UNL     1      -4.499   5.762   1.615  1.00  0.00     0.002 A 
ATOM     25  C   UNL     1      -5.526   4.974   1.115  1.00  0.00     0.001 A 
BRANCH  20  26
ATOM     26  N   UNL     1      -4.486   1.065  -0.372  1.00  0.00    -0.340 N 
ATOM     27  H   UNL     1      -4.947   1.565  -1.125  1.00  0.00     0.168 HD
BRANCH  26  28
ATOM     28  C   UNL     1      -4.366  -0.316  -0.666  1.00  0.00     0.040 A 
ATOM     29  C   UNL     1      -5.170  -0.864  -1.680  1.00  0.00     0.028 A 
ATOM     30  C   UNL     1      -3.567  -1.178   0.104  1.00  0.00     0.038 A 
ATOM     31  C   UNL     1      -5.153  -2.231  -1.995  1.00  0.00     0.030 A 
ATOM     32  C   UNL     1      -3.531  -2.553  -0.195  1.00  0.00     0.022 A 
ATOM     33  C   UNL     1      -4.314  -3.044  -1.231  1.00  0.00     0.065 A 
ATOM     34  C   UNL     1      -2.864  -3.689   0.314  1.00  0.00     0.143 A 
ATOM     35  N   UNL     1      -4.059  -4.389  -1.268  1.00  0.00    -0.278 N 
ATOM     36  N   UNL     1      -3.187  -4.812  -0.335  1.00  0.00    -0.183 NA
ATOM     37  H   UNL     1      -4.453  -5.075  -1.901  1.00  0.00     0.190 HD
ENDBRANCH  26  28
ENDBRANCH  20  26
ENDBRANCH   5  16
TORSDOF 7
