REMARK SMILES CC(C)NC(=O)COc1cccc(-c2nc(Nc3ccc4[nH]ncc4c3)c3ccccc3n2)c1
REMARK SMILES IDX 9 1 10 2 11 3 12 4 13 5 34 6 8 7 7 8 5 9 4 10 6 12 2 13 1 14
REMARK SMILES IDX 3 15 14 16 15 17 33 18 16 19 32 20 27 21 31 22 28 23 30 24
REMARK SMILES IDX 29 25 17 26 18 28 19 29 26 30 20 31 25 32 21 33 24 34 22 35
REMARK SMILES IDX 23 36
REMARK H PARENT 4 11 17 27 22 37
REMARK Flexibility Score: inf
ROOT
ATOM      1  C   UNL     1       1.994  -0.359  -1.904  1.00  0.00     0.120 A 
ATOM      2  C   UNL     1       1.299  -1.043  -2.899  1.00  0.00     0.046 A 
ATOM      3  C   UNL     1      -0.063  -1.297  -2.745  1.00  0.00     0.005 A 
ATOM      4  C   UNL     1      -0.734  -0.869  -1.597  1.00  0.00     0.012 A 
ATOM      5  C   UNL     1      -0.064  -0.176  -0.572  1.00  0.00     0.023 A 
ATOM      6  C   UNL     1       1.312   0.066  -0.757  1.00  0.00     0.058 A 
ENDROOT
BRANCH   1   7
ATOM      7  O   UNL     1       3.324  -0.043  -1.924  1.00  0.00    -0.484 OA
BRANCH   7   8
ATOM      8  C   UNL     1       4.064  -0.435  -3.079  1.00  0.00     0.329 C 
BRANCH   8   9
ATOM      9  C   UNL     1       5.525   0.002  -2.961  1.00  0.00     0.258 C 
ATOM     10  N   UNL     1       5.763   0.932  -1.971  1.00  0.00    -0.351 N 
ATOM     11  H   UNL     1       5.010   1.059  -1.301  1.00  0.00     0.163 HD
ATOM     12  O   UNL     1       6.396  -0.427  -3.715  1.00  0.00    -0.271 OA
BRANCH  10  13
ATOM     13  C   UNL     1       7.103   1.369  -1.618  1.00  0.00     0.075 C 
ATOM     14  C   UNL     1       7.046   2.741  -0.954  1.00  0.00     0.030 C 
ATOM     15  C   UNL     1       7.779   0.351  -0.703  1.00  0.00     0.030 C 
ENDBRANCH  10  13
ENDBRANCH   8   9
ENDBRANCH   7   8
ENDBRANCH   1   7
BRANCH   5  16
ATOM     16  C   UNL     1      -0.771   0.278   0.643  1.00  0.00     0.162 A 
ATOM     17  N   UNL     1      -2.063  -0.058   0.773  1.00  0.00    -0.210 NA
ATOM     18  N   UNL     1      -0.082   1.002   1.540  1.00  0.00    -0.228 NA
ATOM     19  C   UNL     1      -2.713   0.356   1.874  1.00  0.00     0.142 A 
ATOM     20  C   UNL     1      -0.728   1.403   2.638  1.00  0.00     0.076 A 
ATOM     21  C   UNL     1      -2.074   1.105   2.879  1.00  0.00     0.043 A 
ATOM     22  C   UNL     1      -0.030   2.147   3.582  1.00  0.00     0.029 A 
ATOM     23  C   UNL     1      -2.681   1.551   4.082  1.00  0.00     0.014 A 
ATOM     24  C   UNL     1      -0.630   2.596   4.762  1.00  0.00     0.002 A 
ATOM     25  C   UNL     1      -1.961   2.294   5.015  1.00  0.00     0.001 A 
BRANCH  19  26
ATOM     26  N   UNL     1      -4.094   0.045   2.022  1.00  0.00    -0.340 N 
ATOM     27  H   UNL     1      -4.605   0.909   2.171  1.00  0.00     0.168 HD
BRANCH  26  28
ATOM     28  C   UNL     1      -4.860  -0.892   1.289  1.00  0.00     0.040 A 
ATOM     29  C   UNL     1      -4.308  -2.076   0.779  1.00  0.00     0.028 A 
ATOM     30  C   UNL     1      -6.249  -0.689   1.175  1.00  0.00     0.038 A 
ATOM     31  C   UNL     1      -5.078  -3.036   0.106  1.00  0.00     0.030 A 
ATOM     32  C   UNL     1      -7.043  -1.638   0.502  1.00  0.00     0.022 A 
ATOM     33  C   UNL     1      -6.443  -2.778  -0.016  1.00  0.00     0.065 A 
ATOM     34  C   UNL     1      -8.410  -1.779   0.177  1.00  0.00     0.143 A 
ATOM     35  N   UNL     1      -7.460  -3.489  -0.596  1.00  0.00    -0.278 N 
ATOM     36  N   UNL     1      -8.668  -2.905  -0.494  1.00  0.00    -0.183 NA
ATOM     37  H   UNL     1      -7.396  -4.381  -1.074  1.00  0.00     0.190 HD
ENDBRANCH  26  28
ENDBRANCH  19  26
ENDBRANCH   5  16
TORSDOF 7
