REMARK SMILES Oc1c(Cl)cc(Cl)c2cccnc12
REMARK SMILES IDX 2 1 3 2 4 3 5 4 6 5 7 6 8 7 9 8 10 9 11 10 12 11 13 12 1 13
REMARK H PARENT 1 14
REMARK Flexibility Score: inf
ROOT
ATOM      1  C   UNL     1       1.523  -0.666   0.368  1.00  0.00     0.160 A 
ATOM      2  C   UNL     1       2.346   0.440   0.163  1.00  0.00     0.086 A 
ATOM      3  Cl  UNL     1       4.052   0.354   0.393  1.00  0.00    -0.080 Cl
ATOM      4  C   UNL     1       1.786   1.647  -0.238  1.00  0.00     0.045 A 
ATOM      5  C   UNL     1       0.406   1.734  -0.429  1.00  0.00     0.052 A 
ATOM      6  Cl  UNL     1      -0.224   3.269  -0.928  1.00  0.00    -0.084 Cl
ATOM      7  C   UNL     1      -0.438   0.614  -0.222  1.00  0.00     0.023 A 
ATOM      8  C   UNL     1      -1.841   0.615  -0.393  1.00  0.00     0.013 A 
ATOM      9  C   UNL     1      -2.584  -0.538  -0.165  1.00  0.00     0.021 A 
ATOM     10  C   UNL     1      -1.910  -1.674   0.230  1.00  0.00     0.112 A 
ATOM     11  N   UNL     1      -0.572  -1.728   0.407  1.00  0.00    -0.252 NA
ATOM     12  C   UNL     1       0.144  -0.605   0.184  1.00  0.00     0.115 A 
ENDROOT
BRANCH   1  13
ATOM     13  O   UNL     1       2.065  -1.870   0.766  1.00  0.00    -0.504 OA
ATOM     14  H   UNL     1       1.295  -2.474   0.839  1.00  0.00     0.293 HD
ENDBRANCH   1  13
TORSDOF 1
