REMARK SMILES Cn1nnc(-c2ccc(-c3ccc(N4C[C@H](CO)OC4=O)cc3F)cn2)n1
REMARK SMILES IDX 10 1 11 2 12 3 13 4 22 5 23 6 24 7 9 8 6 9 7 10 26 11 8 12
REMARK SMILES IDX 25 13 5 14 1 15 2 16 3 17 27 18 4 19 14 20 15 21 20 22 16 23
REMARK SMILES IDX 19 24 21 25 17 26 18 27
REMARK H PARENT 18 28
REMARK Flexibility Score: inf
ROOT
ATOM      1  C   UNL     1      -0.111   0.091   0.120  1.00  0.00     0.019 A 
ATOM      2  C   UNL     1       0.535  -1.142   0.286  1.00  0.00     0.014 A 
ATOM      3  C   UNL     1       1.919  -1.219   0.515  1.00  0.00     0.027 A 
ATOM      4  C   UNL     1       2.713  -0.069   0.588  1.00  0.00     0.050 A 
ATOM      5  C   UNL     1       2.073   1.164   0.417  1.00  0.00     0.066 A 
ATOM      6  C   UNL     1       0.695   1.234   0.190  1.00  0.00     0.133 A 
ATOM      7  F   UNL     1       0.150   2.452   0.049  1.00  0.00    -0.206 F 
ENDROOT
BRANCH   1   8
ATOM      8  C   UNL     1      -1.561   0.168  -0.118  1.00  0.00     0.003 A 
ATOM      9  C   UNL     1      -4.292   0.353  -0.638  1.00  0.00     0.111 A 
ATOM     10  C   UNL     1      -3.847  -0.494   0.373  1.00  0.00     0.033 A 
ATOM     11  N   UNL     1      -3.435   1.095  -1.381  1.00  0.00    -0.252 NA
ATOM     12  C   UNL     1      -2.476  -0.584   0.629  1.00  0.00     0.013 A 
ATOM     13  C   UNL     1      -2.112   0.988  -1.104  1.00  0.00     0.120 A 
BRANCH   9  14
ATOM     14  C   UNL     1      -5.719   0.476  -0.941  1.00  0.00     0.223 A 
ATOM     15  C   UNL     1      -9.114  -0.143  -0.650  1.00  0.00     0.201 C 
ATOM     16  N   UNL     1      -7.778   0.292  -0.952  1.00  0.00    -0.167 N 
ATOM     17  N   UNL     1      -7.526   1.159  -1.940  1.00  0.00    -0.047 NA
ATOM     18  N   UNL     1      -6.705  -0.185  -0.296  1.00  0.00    -0.130 NA
ATOM     19  N   UNL     1      -6.207   1.293  -1.939  1.00  0.00    -0.106 NA
ENDBRANCH   9  14
ENDBRANCH   1   8
BRANCH   4  20
ATOM     20  N   UNL     1       4.112  -0.133   0.814  1.00  0.00    -0.274 N 
ATOM     21  C   UNL     1       4.958   1.024   0.858  1.00  0.00     0.177 C 
ATOM     22  C   UNL     1       4.852  -1.250   1.183  1.00  0.00     0.414 C 
ATOM     23  C   UNL     1       6.349   0.435   0.855  1.00  0.00     0.224 C 
ATOM     24  O   UNL     1       6.168  -0.899   1.354  1.00  0.00    -0.441 OA
ATOM     25  O   UNL     1       4.473  -2.395   1.364  1.00  0.00    -0.224 OA
BRANCH  23  26
ATOM     26  C   UNL     1       6.962   0.353  -0.544  1.00  0.00     0.203 C 
BRANCH  26  27
ATOM     27  O   UNL     1       8.285  -0.170  -0.461  1.00  0.00    -0.392 OA
ATOM     28  H   UNL     1       8.220  -1.032  -0.005  1.00  0.00     0.210 HD
ENDBRANCH  26  27
ENDBRANCH  23  26
ENDBRANCH   4  20
TORSDOF 5
