REMARK SMILES C=CCNc1nc(NCC=C)nc(N2CCN(C(c3ccc(F)cc3)c3ccc(F)cc3)CC2)n1
REMARK SMILES IDX 5 1 6 2 7 3 12 4 13 5 35 6 4 7 3 9 2 10 1 11 8 12 9 14 10 15
REMARK SMILES IDX 11 16 14 17 15 18 34 19 16 20 33 21 17 22 18 23 19 24 20 25
REMARK SMILES IDX 25 26 21 27 24 28 22 29 23 30 26 31 27 32 32 33 28 34 31 35
REMARK SMILES IDX 29 36 30 37
REMARK H PARENT 4 8 8 13
REMARK Flexibility Score: inf
ROOT
ATOM      1  C   UNL     1       3.916   1.304  -0.145  1.00  0.00     0.229 A 
ATOM      2  N   UNL     1       4.502   0.412  -0.927  1.00  0.00    -0.177 NA
ATOM      3  C   UNL     1       3.720  -0.555  -1.376  1.00  0.00     0.229 A 
ATOM      4  N   UNL     1       2.431  -0.664  -1.088  1.00  0.00    -0.177 NA
ATOM      5  C   UNL     1       1.911   0.280  -0.310  1.00  0.00     0.232 A 
ATOM      6  N   UNL     1       2.636   1.276   0.189  1.00  0.00    -0.177 NA
ENDROOT
BRANCH   1   7
ATOM      7  N   UNL     1       4.651   2.353   0.401  1.00  0.00    -0.351 N 
ATOM      8  H   UNL     1       4.097   2.694   1.179  1.00  0.00     0.164 HD
BRANCH   7   9
ATOM      9  C   UNL     1       6.006   1.990   0.756  1.00  0.00     0.143 C 
BRANCH   9  10
ATOM     10  C   UNL     1       6.687   3.130   1.468  1.00  0.00    -0.014 C 
ATOM     11  C   UNL     1       6.296   4.411   1.537  1.00  0.00     0.006 C 
ENDBRANCH   9  10
ENDBRANCH   7   9
ENDBRANCH   1   7
BRANCH   3  12
ATOM     12  N   UNL     1       4.226  -1.546  -2.200  1.00  0.00    -0.351 N 
ATOM     13  H   UNL     1       3.570  -2.315  -2.217  1.00  0.00     0.164 HD
BRANCH  12  14
ATOM     14  C   UNL     1       5.615  -1.907  -2.041  1.00  0.00     0.143 C 
BRANCH  14  15
ATOM     15  C   UNL     1       5.850  -2.886  -0.921  1.00  0.00    -0.014 C 
ATOM     16  C   UNL     1       4.971  -3.408  -0.052  1.00  0.00     0.006 C 
ENDBRANCH  14  15
ENDBRANCH  12  14
ENDBRANCH   3  12
BRANCH   5  17
ATOM     17  N   UNL     1       0.559   0.196   0.046  1.00  0.00    -0.338 N 
ATOM     18  C   UNL     1      -0.057   1.503   0.326  1.00  0.00     0.135 C 
ATOM     19  C   UNL     1      -0.242  -0.675  -0.829  1.00  0.00     0.135 C 
ATOM     20  C   UNL     1      -1.519   1.336   0.802  1.00  0.00     0.107 C 
ATOM     21  C   UNL     1      -1.690  -0.796  -0.297  1.00  0.00     0.107 C 
ATOM     22  N   UNL     1      -2.328   0.526  -0.132  1.00  0.00    -0.289 NA
BRANCH  22  23
ATOM     23  C   UNL     1      -3.770   0.498   0.217  1.00  0.00     0.117 C 
BRANCH  23  24
ATOM     24  C   UNL     1      -4.096  -0.318   1.478  1.00  0.00    -0.026 A 
ATOM     25  C   UNL     1      -4.205   0.334   2.722  1.00  0.00     0.009 A 
ATOM     26  C   UNL     1      -4.284  -1.714   1.435  1.00  0.00     0.009 A 
ATOM     27  C   UNL     1      -4.489  -0.387   3.883  1.00  0.00     0.039 A 
ATOM     28  C   UNL     1      -4.570  -2.433   2.598  1.00  0.00     0.039 A 
ATOM     29  C   UNL     1      -4.668  -1.763   3.810  1.00  0.00     0.123 A 
ATOM     30  F   UNL     1      -4.940  -2.454   4.925  1.00  0.00    -0.207 F 
ENDBRANCH  23  24
BRANCH  23  31
ATOM     31  C   UNL     1      -4.690   0.210  -0.992  1.00  0.00    -0.026 A 
ATOM     32  C   UNL     1      -4.218   0.281  -2.318  1.00  0.00     0.009 A 
ATOM     33  C   UNL     1      -6.069  -0.024  -0.801  1.00  0.00     0.009 A 
ATOM     34  C   UNL     1      -5.073   0.066  -3.403  1.00  0.00     0.039 A 
ATOM     35  C   UNL     1      -6.924  -0.239  -1.885  1.00  0.00     0.039 A 
ATOM     36  C   UNL     1      -6.416  -0.197  -3.176  1.00  0.00     0.123 A 
ATOM     37  F   UNL     1      -7.235  -0.399  -4.216  1.00  0.00    -0.207 F 
ENDBRANCH  23  31
ENDBRANCH  22  23
ENDBRANCH   5  17
TORSDOF 10
