REMARK SMILES Cc1cc(N2CCN([C@@H]3CN[C@H](C(=O)N4CCSC4)C3)CC2)n(-c2ccccc2)n1
REMARK SMILES IDX 5 1 6 2 7 3 8 4 21 5 22 6 4 7 1 8 2 9 3 10 30 11 23 12 24 13
REMARK SMILES IDX 25 14 29 15 26 16 28 17 27 18 9 19 10 20 20 21 11 22 12 23
REMARK SMILES IDX 13 25 14 26 15 27 16 28 19 29 17 30 18 31
REMARK H PARENT 11 24
REMARK Flexibility Score: inf
ROOT
ATOM      1  N   UNL     1      -2.403  -0.320   0.511  1.00  0.00    -0.354 N 
ATOM      2  C   UNL     1      -1.745   0.480  -0.554  1.00  0.00     0.133 C 
ATOM      3  C   UNL     1      -0.351   0.977  -0.108  1.00  0.00     0.106 C 
ATOM      4  N   UNL     1       0.599  -0.089   0.288  1.00  0.00    -0.296 NA
ATOM      5  C   UNL     1      -0.114  -1.330   0.662  1.00  0.00     0.106 C 
ATOM      6  C   UNL     1      -1.459  -1.070   1.373  1.00  0.00     0.133 C 
ENDROOT
BRANCH   1   7
ATOM      7  C   UNL     1      -3.586  -0.919   0.150  1.00  0.00     0.132 A 
ATOM      8  C   UNL     1      -5.924  -3.441  -1.138  1.00  0.00     0.069 C 
ATOM      9  C   UNL     1      -5.167  -2.273  -0.628  1.00  0.00     0.062 A 
ATOM     10  C   UNL     1      -3.837  -2.236  -0.176  1.00  0.00     0.072 A 
ATOM     11  N   UNL     1      -5.743  -1.072  -0.578  1.00  0.00    -0.171 NA
ATOM     12  N   UNL     1      -4.815  -0.249  -0.001  1.00  0.00    -0.217 N 
BRANCH  12  13
ATOM     13  C   UNL     1      -5.199   1.076   0.378  1.00  0.00     0.067 A 
ATOM     14  C   UNL     1      -4.408   1.867   1.221  1.00  0.00     0.028 A 
ATOM     15  C   UNL     1      -6.427   1.588  -0.074  1.00  0.00     0.028 A 
ATOM     16  C   UNL     1      -4.824   3.153   1.581  1.00  0.00     0.002 A 
ATOM     17  C   UNL     1      -6.839   2.872   0.288  1.00  0.00     0.002 A 
ATOM     18  C   UNL     1      -6.036   3.655   1.113  1.00  0.00     0.000 A 
ENDBRANCH  12  13
ENDBRANCH   1   7
BRANCH   4  19
ATOM     19  C   UNL     1       1.668  -0.320  -0.691  1.00  0.00     0.072 C 
ATOM     20  C   UNL     1       2.675  -1.423  -0.331  1.00  0.00     0.100 C 
ATOM     21  C   UNL     1       2.587   0.896  -0.907  1.00  0.00     0.049 C 
ATOM     22  N   UNL     1       3.833  -1.141  -1.197  1.00  0.00    -0.304 NA
ATOM     23  C   UNL     1       4.004   0.331  -1.079  1.00  0.00     0.145 C 
ATOM     24  H   UNL     1       3.560  -1.348  -2.159  1.00  0.00     0.123 HD
BRANCH  23  25
ATOM     25  C   UNL     1       4.947   0.672   0.111  1.00  0.00     0.240 C 
ATOM     26  O   UNL     1       4.550   1.296   1.097  1.00  0.00    -0.273 OA
BRANCH  25  27
ATOM     27  N   UNL     1       6.279   0.304  -0.005  1.00  0.00    -0.331 N 
ATOM     28  C   UNL     1       7.193   0.550   1.097  1.00  0.00     0.131 C 
ATOM     29  C   UNL     1       6.775  -0.678  -0.944  1.00  0.00     0.189 C 
ATOM     30  C   UNL     1       8.605   0.544   0.540  1.00  0.00     0.093 C 
ATOM     31  S   UNL     1       8.577  -0.732  -0.743  1.00  0.00    -0.139 SA
ENDBRANCH  25  27
ENDBRANCH  23  25
ENDBRANCH   4  19
TORSDOF 5
