REMARK SMILES CN(C)C(=O)N[C@H]1CC[C@H](CCN2CCN(c3cccc(Cl)c3Cl)CC2)CC1
REMARK SMILES IDX 11 1 10 2 7 3 28 4 8 5 27 6 9 7 6 8 1 9 2 10 3 11 4 12 5 13
REMARK SMILES IDX 12 15 13 16 14 17 26 18 15 19 25 20 16 21 17 22 18 23 23 24
REMARK SMILES IDX 19 25 21 26 24 27 20 28 22 29
REMARK H PARENT 6 14
REMARK Flexibility Score: inf
ROOT
ATOM      1  C   UNL     1      -0.128  -2.498   0.219  1.00  0.00     0.019 C 
ENDROOT
BRANCH   1   2
ATOM      2  C   UNL     1      -1.334  -1.680   0.740  1.00  0.00    -0.010 C 
ATOM      3  C   UNL     1      -3.380   0.034  -0.752  1.00  0.00     0.083 C 
ATOM      4  C   UNL     1      -2.524   0.545   0.420  1.00  0.00     0.025 C 
ATOM      5  C   UNL     1      -3.097  -1.440  -1.086  1.00  0.00     0.025 C 
ATOM      6  C   UNL     1      -1.178  -0.167   0.486  1.00  0.00     0.006 C 
ATOM      7  C   UNL     1      -2.653  -2.224   0.145  1.00  0.00     0.006 C 
BRANCH   3   8
ATOM      8  N   UNL     1      -4.801   0.220  -0.468  1.00  0.00    -0.335 N 
ATOM      9  C   UNL     1      -7.381   2.791  -0.277  1.00  0.00     0.148 C 
ATOM     10  N   UNL     1      -6.727   1.495  -0.214  1.00  0.00    -0.331 N 
ATOM     11  C   UNL     1      -7.610   0.344  -0.347  1.00  0.00     0.148 C 
ATOM     12  C   UNL     1      -5.378   1.464  -0.550  1.00  0.00     0.317 C 
ATOM     13  O   UNL     1      -4.747   2.461  -0.889  1.00  0.00    -0.249 OA
ATOM     14  H   UNL     1      -5.167  -0.340   0.286  1.00  0.00     0.165 HD
ENDBRANCH   3   8
ENDBRANCH   1   2
BRANCH   1  15
ATOM     15  C   UNL     1       1.200  -2.260   0.962  1.00  0.00     0.085 C 
BRANCH  15  16
ATOM     16  N   UNL     1       1.796  -0.939   0.745  1.00  0.00    -0.300 NA
ATOM     17  C   UNL     1       2.790  -0.635   1.803  1.00  0.00     0.106 C 
ATOM     18  C   UNL     1       2.388  -0.771  -0.603  1.00  0.00     0.106 C 
ATOM     19  C   UNL     1       3.807   0.449   1.383  1.00  0.00     0.132 C 
ATOM     20  C   UNL     1       3.926  -0.932  -0.693  1.00  0.00     0.132 C 
ATOM     21  N   UNL     1       4.630  -0.051   0.268  1.00  0.00    -0.368 N 
BRANCH  21  22
ATOM     22  C   UNL     1       5.694   0.711  -0.230  1.00  0.00     0.057 A 
ATOM     23  C   UNL     1       5.651   2.118  -0.170  1.00  0.00     0.027 A 
ATOM     24  C   UNL     1       6.852   0.126  -0.811  1.00  0.00     0.083 A 
ATOM     25  C   UNL     1       6.680   2.916  -0.678  1.00  0.00     0.004 A 
ATOM     26  C   UNL     1       7.885   0.934  -1.324  1.00  0.00     0.061 A 
ATOM     27  Cl  UNL     1       7.047  -1.608  -0.825  1.00  0.00    -0.080 Cl
ATOM     28  C   UNL     1       7.793   2.324  -1.260  1.00  0.00     0.022 A 
ATOM     29  Cl  UNL     1       9.315   0.279  -2.052  1.00  0.00    -0.083 Cl
ENDBRANCH  21  22
ENDBRANCH  15  16
ENDBRANCH   1  15
TORSDOF 5
