REMARK SMILES O=C1NCCN1CCN1CCC(c2cn(-c3ccc(F)cc3)c3ccc(Cl)cc23)CC1
REMARK SMILES IDX 9 1 10 2 11 3 12 4 30 5 31 6 8 7 7 8 6 9 1 10 2 11 3 12 4 13
REMARK SMILES IDX 5 15 13 16 14 17 29 18 15 19 23 20 28 21 24 22 26 23 25 24
REMARK SMILES IDX 27 25 16 26 17 27 22 28 18 29 21 30 19 31 20 32
REMARK H PARENT 3 14
REMARK Flexibility Score: inf
ROOT
ATOM      1  N   UNL     1       2.641  -0.592   0.537  1.00  0.00    -0.302 NA
ATOM      2  C   UNL     1       1.596  -0.686   1.562  1.00  0.00     0.085 C 
ATOM      3  C   UNL     1       0.352  -1.462   1.134  1.00  0.00     0.024 C 
ATOM      4  C   UNL     1      -0.244  -0.953  -0.191  1.00  0.00     0.024 C 
ATOM      5  C   UNL     1       0.718  -0.029  -0.948  1.00  0.00     0.024 C 
ATOM      6  C   UNL     1       2.140  -0.576  -0.844  1.00  0.00     0.085 C 
ENDROOT
BRANCH   1   7
ATOM      7  C   UNL     1       3.716  -1.581   0.738  1.00  0.00     0.106 C 
BRANCH   7   8
ATOM      8  C   UNL     1       4.916  -1.481  -0.229  1.00  0.00     0.137 C 
BRANCH   8   9
ATOM      9  N   UNL     1       5.510  -0.159  -0.336  1.00  0.00    -0.322 N 
ATOM     10  O   UNL     1       6.317  -0.319  -2.531  1.00  0.00    -0.249 OA
ATOM     11  C   UNL     1       6.254   0.233  -1.447  1.00  0.00     0.317 C 
ATOM     12  N   UNL     1       6.940   1.390  -1.107  1.00  0.00    -0.336 N 
ATOM     13  C   UNL     1       6.516   1.870   0.179  1.00  0.00     0.139 C 
ATOM     14  H   UNL     1       7.378   1.936  -1.836  1.00  0.00     0.165 HD
ATOM     15  C   UNL     1       5.873   0.644   0.812  1.00  0.00     0.142 C 
ENDBRANCH   8   9
ENDBRANCH   7   8
ENDBRANCH   1   7
BRANCH   4  16
ATOM     16  C   UNL     1      -1.633  -0.376  -0.043  1.00  0.00    -0.019 A 
ATOM     17  C   UNL     1      -2.778  -0.967  -0.541  1.00  0.00     0.096 A 
ATOM     18  C   UNL     1      -2.057   0.818   0.620  1.00  0.00     0.005 A 
ATOM     19  N   UNL     1      -3.876  -0.169  -0.288  1.00  0.00    -0.316 N 
ATOM     20  C   UNL     1      -3.454   0.904   0.501  1.00  0.00     0.053 A 
ATOM     21  C   UNL     1      -1.376   1.826   1.339  1.00  0.00     0.031 A 
ATOM     22  C   UNL     1      -4.176   1.918   1.167  1.00  0.00     0.029 A 
ATOM     23  C   UNL     1      -2.094   2.853   1.954  1.00  0.00     0.041 A 
ATOM     24  C   UNL     1      -3.477   2.893   1.883  1.00  0.00     0.023 A 
ATOM     25  Cl  UNL     1      -1.249   4.067   2.836  1.00  0.00    -0.084 Cl
BRANCH  19  26
ATOM     26  C   UNL     1      -5.190  -0.435  -0.785  1.00  0.00     0.046 A 
ATOM     27  C   UNL     1      -5.594  -1.760  -1.024  1.00  0.00     0.029 A 
ATOM     28  C   UNL     1      -6.072   0.614  -1.080  1.00  0.00     0.029 A 
ATOM     29  C   UNL     1      -6.873  -2.027  -1.520  1.00  0.00     0.041 A 
ATOM     30  C   UNL     1      -7.349   0.341  -1.580  1.00  0.00     0.041 A 
ATOM     31  C   UNL     1      -7.738  -0.976  -1.790  1.00  0.00     0.123 A 
ATOM     32  F   UNL     1      -8.962  -1.234  -2.268  1.00  0.00    -0.207 F 
ENDBRANCH  19  26
ENDBRANCH   4  16
TORSDOF 5
