REMARK SMILES CCc1cc2c(cc1N1CCC(N3CCOCC3)CC1)C(C)(C)c1[nH]c3cc(C#N)ccc3c1C2=O
REMARK SMILES IDX 3 1 4 2 5 3 6 4 7 5 8 6 21 7 22 8 23 9 24 10 25 11 26 12
REMARK SMILES IDX 27 13 28 14 31 15 32 16 33 17 34 18 35 19 36 20 2 22 1 23
REMARK SMILES IDX 9 24 10 25 20 26 11 27 19 28 12 29 13 30 14 31 18 32 15 33
REMARK SMILES IDX 17 34 16 35 29 36 30 37
REMARK H PARENT 25 21
REMARK Flexibility Score: inf
ROOT
ATOM      1  C   UNL     1       0.235  -2.089   1.076  1.00  0.00    -0.024 A 
ATOM      2  C   UNL     1       1.635  -2.192   1.035  1.00  0.00     0.018 A 
ATOM      3  C   UNL     1       2.427  -1.174   0.480  1.00  0.00     0.027 A 
ATOM      4  C   UNL     1       1.823  -0.014  -0.054  1.00  0.00    -0.023 A 
ATOM      5  C   UNL     1       0.414   0.075   0.007  1.00  0.00     0.031 A 
ATOM      6  C   UNL     1      -0.388  -0.934   0.571  1.00  0.00     0.040 A 
ATOM      7  C   UNL     1       2.640   1.130  -0.692  1.00  0.00     0.031 C 
ATOM      8  C   UNL     1       2.226   1.297  -2.171  1.00  0.00     0.023 C 
ATOM      9  C   UNL     1       2.379   2.444   0.076  1.00  0.00     0.023 C 
ATOM     10  C   UNL     1       4.115   0.818  -0.633  1.00  0.00     0.037 A 
ATOM     11  N   UNL     1       5.117   1.626  -1.107  1.00  0.00    -0.357 N 
ATOM     12  C   UNL     1       6.343   1.036  -0.891  1.00  0.00     0.048 A 
ATOM     13  C   UNL     1       7.631   1.492  -1.205  1.00  0.00     0.046 A 
ATOM     14  C   UNL     1       8.716   0.669  -0.865  1.00  0.00     0.054 A 
ATOM     15  C   UNL     1       8.509  -0.561  -0.236  1.00  0.00     0.020 A 
ATOM     16  C   UNL     1       7.214  -0.998   0.070  1.00  0.00     0.012 A 
ATOM     17  C   UNL     1       6.109  -0.188  -0.262  1.00  0.00     0.011 A 
ATOM     18  C   UNL     1       4.699  -0.315  -0.105  1.00  0.00     0.052 A 
ATOM     19  C   UNL     1       3.911  -1.381   0.480  1.00  0.00     0.195 C 
ATOM     20  O   UNL     1       4.412  -2.396   0.951  1.00  0.00    -0.289 OA
ATOM     21  H   UNL     1       4.989   2.526  -1.550  1.00  0.00     0.166 HD
ENDROOT
BRANCH   1  22
ATOM     22  C   UNL     1      -0.555  -3.219   1.699  1.00  0.00     0.034 C 
ATOM     23  C   UNL     1      -0.794  -2.996   3.185  1.00  0.00     0.009 C 
ENDBRANCH   1  22
BRANCH   6  24
ATOM     24  N   UNL     1      -1.785  -0.818   0.604  1.00  0.00    -0.371 N 
ATOM     25  C   UNL     1      -2.448  -1.162  -0.663  1.00  0.00     0.118 C 
ATOM     26  C   UNL     1      -2.307   0.326   1.361  1.00  0.00     0.118 C 
ATOM     27  C   UNL     1      -3.082   0.057  -1.326  1.00  0.00     0.040 C 
ATOM     28  C   UNL     1      -3.801   0.486   1.096  1.00  0.00     0.040 C 
ATOM     29  C   UNL     1      -4.021   0.847  -0.384  1.00  0.00     0.060 C 
BRANCH  29  30
ATOM     30  N   UNL     1      -5.420   0.802  -0.845  1.00  0.00    -0.296 NA
ATOM     31  C   UNL     1      -6.103  -0.501  -0.748  1.00  0.00     0.113 C 
ATOM     32  C   UNL     1      -6.255   1.889  -0.300  1.00  0.00     0.113 C 
ATOM     33  C   UNL     1      -7.262  -0.520   0.262  1.00  0.00     0.175 C 
ATOM     34  C   UNL     1      -7.740   1.655  -0.617  1.00  0.00     0.175 C 
ATOM     35  O   UNL     1      -8.264   0.470  -0.004  1.00  0.00    -0.379 OA
ENDBRANCH  29  30
ENDBRANCH   6  24
BRANCH  14  36
ATOM     36  C   UNL     1      10.050   1.099  -1.171  1.00  0.00     0.099 C 
ATOM     37  N   UNL     1      11.125   1.455  -1.424  1.00  0.00    -0.192 NA
ENDBRANCH  14  36
TORSDOF 4
