REMARK SMILES CN1CC(=O)N2[C@H](c3ccc4c(c3)OCO4)c3[nH]c4ccccc4c3C[C@@H]2C1=O
REMARK SMILES IDX 1 1 2 2 3 3 4 4 5 5 6 6 7 7 17 8 18 9 19 10 20 11 21 12
REMARK SMILES IDX 22 13 23 14 24 15 25 16 26 17 27 18 28 19 29 20 8 22 9 23
REMARK SMILES IDX 13 24 10 25 12 26 11 27 14 28 16 29 15 30
REMARK H PARENT 18 21
REMARK Flexibility Score: inf
ROOT
ATOM      1  C   UNL     1       0.093   5.217  -1.470  1.00  0.00     0.147 C 
ATOM      2  N   UNL     1      -0.017   3.942  -0.788  1.00  0.00    -0.335 N 
ATOM      3  C   UNL     1       0.568   3.838   0.542  1.00  0.00     0.219 C 
ATOM      4  C   UNL     1       0.915   2.395   0.915  1.00  0.00     0.243 C 
ATOM      5  O   UNL     1       1.770   2.149   1.764  1.00  0.00    -0.273 OA
ATOM      6  N   UNL     1       0.106   1.421   0.316  1.00  0.00    -0.316 N 
ATOM      7  C   UNL     1       0.321   0.037   0.785  1.00  0.00     0.164 C 
ATOM      8  C   UNL     1      -0.898  -0.797   0.549  1.00  0.00     0.047 A 
ATOM      9  N   UNL     1      -1.103  -2.045   1.075  1.00  0.00    -0.356 N 
ATOM     10  C   UNL     1      -2.326  -2.532   0.664  1.00  0.00     0.046 A 
ATOM     11  C   UNL     1      -2.951  -3.751   0.950  1.00  0.00     0.026 A 
ATOM     12  C   UNL     1      -4.207  -3.983   0.381  1.00  0.00     0.002 A 
ATOM     13  C   UNL     1      -4.810  -3.034  -0.442  1.00  0.00     0.001 A 
ATOM     14  C   UNL     1      -4.171  -1.820  -0.720  1.00  0.00     0.010 A 
ATOM     15  C   UNL     1      -2.907  -1.562  -0.157  1.00  0.00     0.003 A 
ATOM     16  C   UNL     1      -1.994  -0.478  -0.219  1.00  0.00    -0.014 A 
ATOM     17  C   UNL     1      -2.051   0.813  -0.939  1.00  0.00     0.073 C 
ATOM     18  C   UNL     1      -1.228   1.875  -0.176  1.00  0.00     0.180 C 
ATOM     19  C   UNL     1      -1.091   3.109  -1.096  1.00  0.00     0.245 C 
ATOM     20  O   UNL     1      -1.922   3.389  -1.957  1.00  0.00    -0.272 OA
ATOM     21  H   UNL     1      -0.453  -2.551   1.662  1.00  0.00     0.166 HD
ENDROOT
BRANCH   7  22
ATOM     22  C   UNL     1       1.552  -0.574   0.121  1.00  0.00    -0.015 A 
ATOM     23  C   UNL     1       1.601  -0.783  -1.281  1.00  0.00     0.010 A 
ATOM     24  C   UNL     1       2.664  -0.933   0.905  1.00  0.00     0.057 A 
ATOM     25  C   UNL     1       2.726  -1.347  -1.891  1.00  0.00     0.051 A 
ATOM     26  C   UNL     1       3.758  -1.487   0.274  1.00  0.00     0.166 A 
ATOM     27  C   UNL     1       3.788  -1.689  -1.085  1.00  0.00     0.165 A 
ATOM     28  O   UNL     1       4.905  -1.892   0.884  1.00  0.00    -0.454 OA
ATOM     29  O   UNL     1       4.957  -2.244  -1.502  1.00  0.00    -0.454 OA
ATOM     30  C   UNL     1       5.665  -2.355  -0.251  1.00  0.00     0.468 C 
ENDBRANCH   7  22
TORSDOF 1
