REMARK SMILES CCN(CC)C(=O)C1CN2CCc3cc(OC)c(OC)cc3C2CC1OC(C)=O
REMARK SMILES IDX 8 1 9 2 10 3 11 4 12 5 13 6 14 7 15 8 18 9 21 10 22 11 23 12
REMARK SMILES IDX 24 13 25 14 6 15 3 16 7 17 2 18 1 19 4 20 5 21 26 22 27 23
REMARK SMILES IDX 28 24 29 25 19 26 20 27 16 28 17 29
REMARK H PARENT
REMARK Flexibility Score: inf
ROOT
ATOM      1  C   UNL     1      -1.753  -0.178  -0.434  1.00  0.00     0.133 C 
ATOM      2  C   UNL     1      -0.957  -1.148  -1.314  1.00  0.00     0.102 C 
ATOM      3  N   UNL     1       0.380  -1.455  -0.751  1.00  0.00    -0.295 NA
ATOM      4  C   UNL     1       1.313  -1.771  -1.844  1.00  0.00     0.090 C 
ATOM      5  C   UNL     1       2.653  -2.284  -1.318  1.00  0.00     0.051 C 
ATOM      6  C   UNL     1       3.235  -1.371  -0.273  1.00  0.00    -0.038 A 
ATOM      7  C   UNL     1       4.611  -1.436   0.017  1.00  0.00     0.054 A 
ATOM      8  C   UNL     1       5.169  -0.635   1.015  1.00  0.00     0.161 A 
ATOM      9  C   UNL     1       4.327   0.197   1.756  1.00  0.00     0.161 A 
ATOM     10  C   UNL     1       2.961   0.274   1.473  1.00  0.00     0.056 A 
ATOM     11  C   UNL     1       2.397  -0.508   0.451  1.00  0.00    -0.023 A 
ATOM     12  C   UNL     1       0.904  -0.409   0.159  1.00  0.00     0.091 C 
ATOM     13  C   UNL     1       0.508   1.001  -0.311  1.00  0.00     0.070 C 
ATOM     14  C   UNL     1      -1.018   1.175  -0.417  1.00  0.00     0.192 C 
ENDROOT
BRANCH   1  15
ATOM     15  C   UNL     1      -3.187  -0.033  -0.934  1.00  0.00     0.230 C 
ATOM     16  N   UNL     1      -4.160   0.400  -0.034  1.00  0.00    -0.343 N 
ATOM     17  O   UNL     1      -3.455  -0.237  -2.122  1.00  0.00    -0.274 OA
BRANCH  16  18
ATOM     18  C   UNL     1      -3.983   0.472   1.422  1.00  0.00     0.116 C 
ATOM     19  C   UNL     1      -4.166  -0.874   2.107  1.00  0.00     0.027 C 
ENDBRANCH  16  18
BRANCH  16  20
ATOM     20  C   UNL     1      -5.503   0.667  -0.559  1.00  0.00     0.116 C 
ATOM     21  C   UNL     1      -6.348  -0.587  -0.736  1.00  0.00     0.027 C 
ENDBRANCH  16  20
ENDBRANCH   1  15
BRANCH  14  22
ATOM     22  O   UNL     1      -1.243   1.899  -1.652  1.00  0.00    -0.462 OA
BRANCH  22  23
ATOM     23  C   UNL     1      -2.106   2.953  -1.614  1.00  0.00     0.302 C 
ATOM     24  C   UNL     1      -2.247   3.532  -2.990  1.00  0.00     0.139 C 
ATOM     25  O   UNL     1      -2.672   3.375  -0.615  1.00  0.00    -0.253 OA
ENDBRANCH  22  23
ENDBRANCH  14  22
BRANCH   9  26
ATOM     26  O   UNL     1       4.849   1.009   2.731  1.00  0.00    -0.493 OA
ATOM     27  C   UNL     1       4.610   0.443   4.020  1.00  0.00     0.278 C 
ENDBRANCH   9  26
BRANCH   8  28
ATOM     28  O   UNL     1       6.493  -0.645   1.370  1.00  0.00    -0.493 OA
ATOM     29  C   UNL     1       7.406  -1.047   0.356  1.00  0.00     0.278 C 
ENDBRANCH   8  28
TORSDOF 7
