REMARK SMILES CC(C)n1nccc1-c1ncccc1COc1cccc(O)c1C=O
REMARK SMILES IDX 15 1 14 2 9 3 10 4 11 5 13 6 12 7 8 8 4 9 5 10 6 11 7 12
REMARK SMILES IDX 2 13 1 14 3 15 16 16 17 17 18 18 23 19 19 20 21 21 20 22
REMARK SMILES IDX 24 23 25 24 22 25
REMARK H PARENT 22 26
REMARK Flexibility Score: inf
ROOT
ATOM      1  C   UNL     1      -0.878   0.386  -0.540  1.00  0.00     0.267 C 
ENDROOT
BRANCH   1   2
ATOM      2  C   UNL     1       0.052   1.491  -0.097  1.00  0.00     0.017 A 
ATOM      3  C   UNL     1       1.423   1.442  -0.372  1.00  0.00     0.095 A 
ATOM      4  N   UNL     1       2.302   2.399   0.011  1.00  0.00    -0.254 NA
ATOM      5  C   UNL     1       1.807   3.467   0.669  1.00  0.00     0.112 A 
ATOM      6  C   UNL     1      -0.418   2.628   0.577  1.00  0.00     0.011 A 
ATOM      7  C   UNL     1       0.467   3.627   0.968  1.00  0.00     0.021 A 
BRANCH   3   8
ATOM      8  C   UNL     1       2.052   0.364  -1.122  1.00  0.00     0.087 A 
ATOM      9  N   UNL     1       3.066  -0.440  -0.645  1.00  0.00    -0.261 N 
ATOM     10  N   UNL     1       3.461  -1.379  -1.539  1.00  0.00    -0.181 NA
ATOM     11  C   UNL     1       2.729  -1.123  -2.622  1.00  0.00     0.136 A 
ATOM     12  C   UNL     1       1.837  -0.059  -2.422  1.00  0.00     0.052 A 
BRANCH   9  13
ATOM     13  C   UNL     1       3.704  -0.399   0.670  1.00  0.00     0.102 C 
ATOM     14  C   UNL     1       3.713  -1.773   1.346  1.00  0.00     0.033 C 
ATOM     15  C   UNL     1       5.115   0.178   0.572  1.00  0.00     0.033 C 
ENDBRANCH   9  13
ENDBRANCH   3   8
ENDBRANCH   1   2
BRANCH   1  16
ATOM     16  O   UNL     1      -2.109   0.429   0.192  1.00  0.00    -0.488 OA
BRANCH  16  17
ATOM     17  C   UNL     1      -3.058  -0.517  -0.096  1.00  0.00     0.134 A 
ATOM     18  C   UNL     1      -2.908  -1.518  -1.065  1.00  0.00     0.047 A 
ATOM     19  C   UNL     1      -4.255  -0.461   0.640  1.00  0.00     0.098 A 
ATOM     20  C   UNL     1      -3.932  -2.443  -1.297  1.00  0.00     0.008 A 
ATOM     21  C   UNL     1      -5.276  -1.391   0.399  1.00  0.00     0.129 A 
ATOM     22  C   UNL     1      -5.116  -2.379  -0.567  1.00  0.00     0.047 A 
BRANCH  19  23
ATOM     23  C   UNL     1      -4.437   0.581   1.673  1.00  0.00     0.267 C 
ATOM     24  O   UNL     1      -5.482   0.657   2.316  1.00  0.00    -0.298 OA
ENDBRANCH  19  23
BRANCH  21  25
ATOM     25  O   UNL     1      -6.467  -1.394   1.075  1.00  0.00    -0.507 OA
ATOM     26  H   UNL     1      -6.454  -0.651   1.721  1.00  0.00     0.293 HD
ENDBRANCH  21  25
ENDBRANCH  16  17
ENDBRANCH   1  16
TORSDOF 7
