REMARK SMILES CN(C)CCC=C1c2ccccc2CCc2ccccc21
REMARK SMILES IDX 5 1 4 2 2 3 1 4 3 5 6 6 7 7 8 8 9 9 13 10 10 11 12 12 11 13
REMARK SMILES IDX 14 14 21 16 16 17 20 18 17 19 19 20 18 21 15 22
REMARK H PARENT
REMARK Flexibility Score: 90.00
ROOT
ATOM      1  C   UNL     1       1.962  -0.226   0.647  1.00  0.00     0.043 C 
ENDROOT
BRANCH   1   2
ATOM      2  C   UNL     1       2.019   0.838   1.760  1.00  0.00     0.088 C 
BRANCH   2   3
ATOM      3  N   UNL     1       3.206   1.708   1.796  1.00  0.00    -0.309 NA
ATOM      4  C   UNL     1       3.297   2.575   0.624  1.00  0.00     0.104 C 
ATOM      5  C   UNL     1       4.447   0.965   1.997  1.00  0.00     0.104 C 
ENDBRANCH   2   3
ENDBRANCH   1   2
BRANCH   1   6
ATOM      6  C   UNL     1       0.677  -1.015   0.720  1.00  0.00    -0.016 C 
ATOM      7  C   UNL     1      -0.376  -0.980  -0.128  1.00  0.00    -0.015 C 
BRANCH   7   8
ATOM      8  C   UNL     1      -1.584  -1.769   0.235  1.00  0.00    -0.015 A 
ATOM      9  C   UNL     1      -1.433  -3.152   0.467  1.00  0.00     0.009 A 
ATOM     10  C   UNL     1      -2.871  -1.196   0.319  1.00  0.00    -0.040 A 
ATOM     11  C   UNL     1      -2.523  -3.956   0.799  1.00  0.00     0.001 A 
ATOM     12  C   UNL     1      -3.960  -2.032   0.649  1.00  0.00     0.004 A 
ATOM     13  C   UNL     1      -3.788  -3.394   0.893  1.00  0.00     0.000 A 
BRANCH  10  14
ATOM     14  C   UNL     1      -3.216   0.258   0.036  1.00  0.00     0.041 CG0
ATOM     15  G   UNL     1      -2.099   1.305  -0.045  1.00  0.00     0.000 G0
ENDBRANCH  10  14
ENDBRANCH   7   8
BRANCH   7  16
ATOM     16  C   UNL     1      -0.372  -0.050  -1.277  1.00  0.00    -0.015 A 
ATOM     17  C   UNL     1      -1.199   1.084  -1.236  1.00  0.00    -0.040 A 
ATOM     18  C   UNL     1       0.422  -0.295  -2.405  1.00  0.00     0.009 A 
ATOM     19  C   UNL     1      -1.196   1.977  -2.315  1.00  0.00     0.004 A 
ATOM     20  C   UNL     1       0.416   0.599  -3.475  1.00  0.00     0.001 A 
ATOM     21  C   UNL     1      -0.389   1.736  -3.427  1.00  0.00     0.000 A 
BRANCH  17  22
ATOM     22  C   UNL     1      -2.099   1.305  -0.045  1.00  0.00     0.041 CG0
ATOM     23  G   UNL     1      -3.216   0.258   0.036  1.00  0.00     0.000 G0
ENDBRANCH  17  22
ENDBRANCH   7  16
ENDBRANCH   1   6
TORSDOF 3
