REMARK SMILES CN1CC[C@@H](NC(=O)Nc2ccc(C#N)cc2)C[C@@H]1c1nc2ccccc2[nH]1
REMARK SMILES IDX 6 1 7 2 8 3 9 4 5 7 1 8 2 9 3 10 19 11 4 12 18 13 20 14
REMARK SMILES IDX 21 15 28 16 22 17 27 18 23 20 26 21 24 22 25 23 10 24 11 25
REMARK SMILES IDX 17 26 12 27 16 28 13 29 14 30 15 31
REMARK H PARENT 6 5 9 6 28 19
REMARK Flexibility Score: inf
ROOT
ATOM      1  N   UNL     1       1.361  -0.377   0.373  1.00  0.00    -0.335 N 
ATOM      2  C   UNL     1       2.716  -0.626   0.232  1.00  0.00     0.319 C 
ATOM      3  O   UNL     1       3.193  -1.752   0.264  1.00  0.00    -0.248 OA
ATOM      4  N   UNL     1       3.398   0.556   0.041  1.00  0.00    -0.308 N 
ATOM      5  H   UNL     1       1.184   0.467   0.900  1.00  0.00     0.165 HD
ATOM      6  H   UNL     1       2.818   1.350  -0.185  1.00  0.00     0.171 HD
ENDROOT
BRANCH   1   7
ATOM      7  C   UNL     1       0.425  -1.477   0.624  1.00  0.00     0.087 C 
ATOM      8  C   UNL     1      -2.453  -0.588  -2.461  1.00  0.00     0.106 C 
ATOM      9  N   UNL     1      -1.826  -1.244  -1.300  1.00  0.00    -0.296 NA
ATOM     10  C   UNL     1      -0.493  -1.726  -1.716  1.00  0.00     0.087 C 
ATOM     11  C   UNL     1      -1.704  -0.299  -0.158  1.00  0.00     0.125 C 
ATOM     12  C   UNL     1       0.259  -2.409  -0.579  1.00  0.00     0.040 C 
ATOM     13  C   UNL     1      -0.948  -0.941   1.026  1.00  0.00     0.052 C 
BRANCH  11  14
ATOM     14  C   UNL     1      -3.046   0.158   0.356  1.00  0.00     0.124 A 
ATOM     15  N   UNL     1      -3.362   1.365   0.783  1.00  0.00    -0.232 NA
ATOM     16  N   UNL     1      -4.119  -0.696   0.458  1.00  0.00    -0.341 N 
ATOM     17  C   UNL     1      -4.680   1.286   1.163  1.00  0.00     0.089 A 
ATOM     18  C   UNL     1      -5.180   0.003   0.969  1.00  0.00     0.066 A 
ATOM     19  H   UNL     1      -4.110  -1.663   0.165  1.00  0.00     0.168 HD
ATOM     20  C   UNL     1      -5.524   2.276   1.687  1.00  0.00     0.030 A 
ATOM     21  C   UNL     1      -6.494  -0.363   1.267  1.00  0.00     0.028 A 
ATOM     22  C   UNL     1      -6.847   1.937   1.997  1.00  0.00     0.002 A 
ATOM     23  C   UNL     1      -7.321   0.639   1.788  1.00  0.00     0.002 A 
ENDBRANCH  11  14
ENDBRANCH   1   7
BRANCH   4  24
ATOM     24  C   UNL     1       4.791   0.737  -0.068  1.00  0.00     0.042 A 
ATOM     25  C   UNL     1       5.726  -0.273   0.171  1.00  0.00     0.027 A 
ATOM     26  C   UNL     1       5.248   2.013  -0.419  1.00  0.00     0.027 A 
ATOM     27  C   UNL     1       7.097  -0.016   0.050  1.00  0.00     0.021 A 
ATOM     28  C   UNL     1       6.617   2.273  -0.541  1.00  0.00     0.021 A 
ATOM     29  C   UNL     1       7.547   1.257  -0.308  1.00  0.00     0.052 A 
BRANCH  29  30
ATOM     30  C   UNL     1       8.950   1.520  -0.432  1.00  0.00     0.099 C 
ATOM     31  N   UNL     1      10.085   1.740  -0.534  1.00  0.00    -0.192 NA
ENDBRANCH  29  30
ENDBRANCH   4  24
TORSDOF 4
