REMARK SMILES CN(C)CCc1c[nH]c2ccc(C[C@H]3COC(=O)N3)cc12
REMARK SMILES IDX 6 1 7 2 8 3 9 4 10 5 11 6 12 7 20 8 21 9 5 11 4 12 2 13 1 14
REMARK SMILES IDX 3 15 13 16 14 17 15 18 19 19 16 20 17 21 18 23
REMARK H PARENT 8 10 19 22
REMARK Flexibility Score: inf
ROOT
ATOM      1  C   UNL     1      -1.373   1.302   0.144  1.00  0.00    -0.021 A 
ATOM      2  C   UNL     1      -1.817   2.455  -0.474  1.00  0.00     0.087 A 
ATOM      3  N   UNL     1      -0.939   2.776  -1.472  1.00  0.00    -0.361 N 
ATOM      4  C   UNL     1       0.089   1.864  -1.513  1.00  0.00     0.046 A 
ATOM      5  C   UNL     1       1.202   1.798  -2.358  1.00  0.00     0.027 A 
ATOM      6  C   UNL     1       2.098   0.740  -2.172  1.00  0.00     0.006 A 
ATOM      7  C   UNL     1       1.892  -0.224  -1.179  1.00  0.00    -0.045 A 
ATOM      8  C   UNL     1       0.761  -0.135  -0.348  1.00  0.00     0.014 A 
ATOM      9  C   UNL     1      -0.156   0.925  -0.513  1.00  0.00     0.003 A 
ATOM     10  H   UNL     1      -1.030   3.566  -2.095  1.00  0.00     0.166 HD
ENDROOT
BRANCH   1  11
ATOM     11  C   UNL     1      -2.039   0.594   1.284  1.00  0.00     0.053 C 
BRANCH  11  12
ATOM     12  C   UNL     1      -2.956  -0.566   0.848  1.00  0.00     0.088 C 
BRANCH  12  13
ATOM     13  N   UNL     1      -4.167  -0.176   0.097  1.00  0.00    -0.309 NA
ATOM     14  C   UNL     1      -4.818  -1.365  -0.458  1.00  0.00     0.104 C 
ATOM     15  C   UNL     1      -5.114   0.569   0.925  1.00  0.00     0.104 C 
ENDBRANCH  12  13
ENDBRANCH  11  12
ENDBRANCH   1  11
BRANCH   7  16
ATOM     16  C   UNL     1       2.890  -1.339  -0.982  1.00  0.00     0.064 C 
BRANCH  16  17
ATOM     17  C   UNL     1       4.148  -0.876  -0.251  1.00  0.00     0.127 C 
ATOM     18  C   UNL     1       3.924  -0.456   1.190  1.00  0.00     0.260 C 
ATOM     19  N   UNL     1       5.125  -1.909  -0.089  1.00  0.00    -0.315 N 
ATOM     20  O   UNL     1       5.166  -0.766   1.840  1.00  0.00    -0.447 OA
ATOM     21  C   UNL     1       5.822  -1.682   1.068  1.00  0.00     0.407 C 
ATOM     22  H   UNL     1       5.652  -2.323  -0.847  1.00  0.00     0.167 HD
ATOM     23  O   UNL     1       6.891  -2.196   1.349  1.00  0.00    -0.225 OA
ENDBRANCH  16  17
ENDBRANCH   7  16
TORSDOF 5
