REMARK SMILES Nc1cc(-c2ccncc2)c[nH]c1=O
REMARK SMILES IDX 2 1 3 2 4 3 11 4 12 5 13 6 14 7 1 9 5 12 6 13 10 14 7 15
REMARK SMILES IDX 9 16 8 17
REMARK H PARENT 12 8 1 10 1 11
REMARK Flexibility Score: inf
ROOT
ATOM      1  C   UNL     1      -2.480   0.429   0.353  1.00  0.00     0.098 C 
ATOM      2  C   UNL     1      -1.174   0.740   0.403  1.00  0.00     0.041 C 
ATOM      3  C   UNL     1      -0.125  -0.263   0.299  1.00  0.00     0.000 C 
ATOM      4  C   UNL     1      -0.478  -1.552   0.150  1.00  0.00     0.094 C 
ATOM      5  N   UNL     1      -1.798  -1.920   0.110  1.00  0.00    -0.327 N 
ATOM      6  C   UNL     1      -2.846  -1.038   0.214  1.00  0.00     0.271 C 
ATOM      7  O   UNL     1      -4.018  -1.407   0.219  1.00  0.00    -0.267 OA
ATOM      8  H   UNL     1      -2.055  -2.894   0.009  1.00  0.00     0.169 HD
ENDROOT
BRANCH   1   9
ATOM      9  N   UNL     1      -3.518   1.342   0.441  1.00  0.00    -0.394 N 
ATOM     10  H   UNL     1      -4.392   0.863   0.674  1.00  0.00     0.156 HD
ATOM     11  H   UNL     1      -3.318   2.119   1.062  1.00  0.00     0.156 HD
ENDBRANCH   1   9
BRANCH   3  12
ATOM     12  C   UNL     1       1.307   0.076   0.330  1.00  0.00    -0.014 A 
ATOM     13  C   UNL     1       1.899   0.722  -0.756  1.00  0.00     0.029 A 
ATOM     14  C   UNL     1       2.088  -0.226   1.447  1.00  0.00     0.029 A 
ATOM     15  C   UNL     1       3.247   1.029  -0.682  1.00  0.00     0.111 A 
ATOM     16  C   UNL     1       3.428   0.123   1.425  1.00  0.00     0.111 A 
ATOM     17  N   UNL     1       4.025   0.742   0.384  1.00  0.00    -0.265 NA
ENDBRANCH   3  12
TORSDOF 2
