REMARK SMILES CC(=O)[C@]1(O)Cc2c(O)c3c(c(O)c2[C@@H](O[C@H]2C[C@H](N)[C@H](O)[C@H](C)O2)C1)C(=O)c1ccccc1C3=O
REMARK SMILES IDX 16 1 15 2 4 3 6 4 26 5 7 6 8 7 14 8 10 9 12 10 11 11 35 12
REMARK SMILES IDX 27 13 34 14 36 15 28 16 29 17 33 18 30 19 32 20 31 21 2 22
REMARK SMILES IDX 1 23 3 24 5 25 9 27 13 29 17 31 18 32 25 33 19 34 23 35
REMARK SMILES IDX 21 36 24 37 20 38 22 41
REMARK H PARENT 5 26 9 28 13 30 20 39 20 40 22 42
REMARK Flexibility Score: inf
ROOT
ATOM      1  O   UNL     1      -1.221  -0.414   0.072  1.00  0.00    -0.344 OA
ENDROOT
BRANCH   1   2
ATOM      2  C   UNL     1      -0.510  -0.049  -1.113  1.00  0.00     0.159 C 
ATOM      3  C   UNL     1      -0.567   2.479  -0.898  1.00  0.00     0.129 C 
ATOM      4  C   UNL     1       0.967   2.547  -0.793  1.00  0.00     0.083 C 
ATOM      5  C   UNL     1      -0.962   1.267  -1.748  1.00  0.00     0.081 C 
ATOM      6  C   UNL     1       1.653   1.207  -0.601  1.00  0.00     0.008 A 
ATOM      7  C   UNL     1       3.029   1.172  -0.323  1.00  0.00     0.131 A 
ATOM      8  C   UNL     1       0.959  -0.011  -0.726  1.00  0.00     0.031 A 
ATOM      9  C   UNL     1       3.711  -0.035  -0.117  1.00  0.00     0.080 A 
ATOM     10  C   UNL     1       1.640  -1.213  -0.444  1.00  0.00     0.133 A 
ATOM     11  C   UNL     1       3.001  -1.235  -0.104  1.00  0.00     0.080 A 
ATOM     12  C   UNL     1       5.178  -0.046   0.063  1.00  0.00     0.198 C 
ATOM     13  C   UNL     1       3.685  -2.477   0.351  1.00  0.00     0.198 C 
ATOM     14  C   UNL     1       5.798  -1.207   0.718  1.00  0.00     0.034 A 
ATOM     15  O   UNL     1       5.875   0.869  -0.359  1.00  0.00    -0.288 OA
ATOM     16  O   UNL     1       3.122  -3.573   0.370  1.00  0.00    -0.288 OA
ATOM     17  C   UNL     1       5.071  -2.383   0.867  1.00  0.00     0.034 A 
ATOM     18  C   UNL     1       7.115  -1.127   1.189  1.00  0.00     0.013 A 
ATOM     19  C   UNL     1       5.652  -3.482   1.513  1.00  0.00     0.013 A 
ATOM     20  C   UNL     1       7.690  -2.223   1.832  1.00  0.00     0.001 A 
ATOM     21  C   UNL     1       6.961  -3.397   1.999  1.00  0.00     0.001 A 
BRANCH   3  22
ATOM     22  C   UNL     1      -1.069   3.774  -1.568  1.00  0.00     0.161 C 
ATOM     23  C   UNL     1      -1.047   5.040  -0.746  1.00  0.00     0.091 C 
ATOM     24  O   UNL     1      -1.411   3.808  -2.757  1.00  0.00    -0.297 OA
ENDBRANCH   3  22
BRANCH   3  25
ATOM     25  O   UNL     1      -1.125   2.400   0.415  1.00  0.00    -0.382 OA
ATOM     26  H   UNL     1      -1.992   1.947   0.356  1.00  0.00     0.212 HD
ENDBRANCH   3  25
BRANCH   7  27
ATOM     27  O   UNL     1       3.678   2.368  -0.178  1.00  0.00    -0.507 OA
ATOM     28  H   UNL     1       4.154   2.555  -1.026  1.00  0.00     0.293 HD
ENDBRANCH   7  27
BRANCH  10  29
ATOM     29  O   UNL     1       0.923  -2.374  -0.521  1.00  0.00    -0.507 OA
ATOM     30  H   UNL     1       0.293  -2.355   0.221  1.00  0.00     0.293 HD
ENDBRANCH  10  29
ENDBRANCH   1   2
BRANCH   1  31
ATOM     31  C   UNL     1      -2.620  -0.626  -0.103  1.00  0.00     0.252 C 
ATOM     32  C   UNL     1      -3.070  -1.646   0.949  1.00  0.00     0.083 C 
ATOM     33  O   UNL     1      -3.309   0.612   0.087  1.00  0.00    -0.347 OA
ATOM     34  C   UNL     1      -4.545  -1.465   1.330  1.00  0.00     0.087 C 
ATOM     35  C   UNL     1      -4.720   0.525  -0.197  1.00  0.00     0.148 C 
ATOM     36  C   UNL     1      -5.335  -0.856   0.153  1.00  0.00     0.160 C 
ATOM     37  C   UNL     1      -4.966   0.951  -1.643  1.00  0.00     0.041 C 
BRANCH  34  38
ATOM     38  N   UNL     1      -5.096  -2.763   1.769  1.00  0.00    -0.325 NA
ATOM     39  H   UNL     1      -5.111  -3.381   0.952  1.00  0.00     0.119 HD
ATOM     40  H   UNL     1      -6.075  -2.647   2.027  1.00  0.00     0.119 HD
ENDBRANCH  34  38
BRANCH  36  41
ATOM     41  O   UNL     1      -5.270  -1.770  -0.952  1.00  0.00    -0.389 OA
ATOM     42  H   UNL     1      -5.937  -1.491  -1.607  1.00  0.00     0.211 HD
ENDBRANCH  36  41
ENDBRANCH   1  31
TORSDOF 8
