REMARK SMILES CC(C)Nc1ncccn1
REMARK SMILES IDX 4 1 2 3 1 4 3 5 5 6 6 7 10 8 7 9 9 10 8 11
REMARK H PARENT 4 2
REMARK Flexibility Score: inf
ROOT
ATOM      1  N   UNL     1       0.509   0.858  -0.576  1.00  0.00    -0.352 N 
ATOM      2  H   UNL     1       0.592   1.635   0.068  1.00  0.00     0.163 HD
ENDROOT
BRANCH   1   3
ATOM      3  C   UNL     1       1.546  -0.160  -0.493  1.00  0.00     0.076 C 
ATOM      4  C   UNL     1       1.675  -0.692   0.935  1.00  0.00     0.030 C 
ATOM      5  C   UNL     1       2.866   0.472  -0.936  1.00  0.00     0.030 C 
ENDBRANCH   1   3
BRANCH   1   6
ATOM      6  C   UNL     1      -0.806   0.432  -0.517  1.00  0.00     0.222 A 
ATOM      7  N   UNL     1      -1.163  -0.765  -1.006  1.00  0.00    -0.222 NA
ATOM      8  N   UNL     1      -1.662   1.289   0.057  1.00  0.00    -0.222 NA
ATOM      9  C   UNL     1      -2.464  -1.098  -0.918  1.00  0.00     0.117 A 
ATOM     10  C   UNL     1      -2.952   0.911   0.122  1.00  0.00     0.117 A 
ATOM     11  C   UNL     1      -3.417  -0.288  -0.356  1.00  0.00     0.040 A 
ENDBRANCH   1   6
TORSDOF 2
