REMARK SMILES C/C(=C(/CCO)SSCC1CCCO1)N(C=O)Cc1cnc(C)nc1N
REMARK SMILES IDX 1 1 2 2 3 3 15 4 16 5 17 6 18 7 19 8 20 9 25 10 21 11 24 12
REMARK SMILES IDX 22 13 23 14 26 15 4 18 5 19 6 20 7 22 8 23 9 24 10 25 11 26
REMARK SMILES IDX 14 27 12 28 13 29
REMARK H PARENT 26 16 26 17 6 21
REMARK Flexibility Score: inf
ROOT
ATOM      1  C   UNL     1       1.035   2.460   0.372  1.00  0.00     0.065 C 
ATOM      2  C   UNL     1       0.793   1.155  -0.373  1.00  0.00     0.028 C 
ATOM      3  C   UNL     1      -0.139   0.232   0.013  1.00  0.00     0.017 C 
ENDROOT
BRANCH   2   4
ATOM      4  N   UNL     1       1.629   0.970  -1.498  1.00  0.00    -0.314 N 
BRANCH   4   5
ATOM      5  C   UNL     1       1.129   0.526  -2.722  1.00  0.00     0.344 C 
ATOM      6  O   UNL     1       1.780   0.335  -3.742  1.00  0.00    -0.278 OA
ENDBRANCH   4   5
BRANCH   4   7
ATOM      7  C   UNL     1       3.029   1.432  -1.496  1.00  0.00     0.166 C 
BRANCH   7   8
ATOM      8  C   UNL     1       3.918   0.680  -0.547  1.00  0.00     0.032 A 
ATOM      9  C   UNL     1       3.898  -0.703  -0.504  1.00  0.00     0.122 A 
ATOM     10  C   UNL     1       4.861   1.275   0.275  1.00  0.00     0.132 A 
ATOM     11  N   UNL     1       4.676  -1.449   0.298  1.00  0.00    -0.241 NA
ATOM     12  N   UNL     1       5.654   0.565   1.090  1.00  0.00    -0.216 NA
ATOM     13  C   UNL     1       5.536  -0.773   1.073  1.00  0.00     0.127 A 
ATOM     14  C   UNL     1       6.398  -1.557   2.011  1.00  0.00     0.090 C 
BRANCH  10  15
ATOM     15  N   UNL     1       5.060   2.657   0.306  1.00  0.00    -0.383 N 
ATOM     16  H   UNL     1       4.225   3.145   0.608  1.00  0.00     0.158 HD
ATOM     17  H   UNL     1       5.349   3.004  -0.603  1.00  0.00     0.158 HD
ENDBRANCH  10  15
ENDBRANCH   7   8
ENDBRANCH   4   7
ENDBRANCH   2   4
BRANCH   3  18
ATOM     18  C   UNL     1      -0.161  -1.218  -0.484  1.00  0.00     0.073 C 
BRANCH  18  19
ATOM     19  C   UNL     1      -1.392  -1.592  -1.311  1.00  0.00     0.161 C 
BRANCH  19  20
ATOM     20  O   UNL     1      -2.394  -2.206  -0.512  1.00  0.00    -0.396 OA
ATOM     21  H   UNL     1      -2.574  -1.635   0.264  1.00  0.00     0.210 HD
ENDBRANCH  19  20
ENDBRANCH  18  19
ENDBRANCH   3  18
BRANCH   3  22
ATOM     22  S   UNL     1      -1.231   0.522   1.370  1.00  0.00    -0.060 SA
BRANCH  22  23
ATOM     23  S   UNL     1      -2.518   1.889   0.520  1.00  0.00    -0.086 SA
BRANCH  23  24
ATOM     24  C   UNL     1      -3.995   0.922   0.015  1.00  0.00     0.114 C 
BRANCH  24  25
ATOM     25  C   UNL     1      -4.710   0.231   1.183  1.00  0.00     0.129 C 
ATOM     26  C   UNL     1      -6.160  -0.119   0.848  1.00  0.00     0.035 C 
ATOM     27  O   UNL     1      -4.053  -1.021   1.485  1.00  0.00    -0.377 OA
ATOM     28  C   UNL     1      -6.088  -1.576   0.464  1.00  0.00     0.031 C 
ATOM     29  C   UNL     1      -5.021  -2.078   1.404  1.00  0.00     0.160 C 
ENDBRANCH  24  25
ENDBRANCH  23  24
ENDBRANCH  22  23
ENDBRANCH   3  22
TORSDOF 12
