REMARK SMILES CC1(C)S[C@@H]2[C@H](NC(=O)[C@H](NC(=O)N3CCNC3=O)c3ccccc3)C(=O)N2[C@H]1C(=O)O
REMARK SMILES IDX 7 1 8 2 9 3 6 5 1 6 2 7 3 8 4 9 29 10 5 11 28 12 26 13 27 14
REMARK SMILES IDX 30 15 31 16 32 17 10 19 11 20 12 21 13 23 14 24 15 25 18 26
REMARK SMILES IDX 16 27 17 28 19 29 20 31 21 32 25 33 22 34 24 35 23 36
REMARK H PARENT 7 4 32 18 11 22 17 30
REMARK Flexibility Score: inf
ROOT
ATOM      1  N   UNL     1      -0.183   1.422  -0.178  1.00  0.00    -0.340 N 
ATOM      2  C   UNL     1       0.646   0.419  -0.635  1.00  0.00     0.248 C 
ATOM      3  O   UNL     1       0.334  -0.303  -1.587  1.00  0.00    -0.272 OA
ATOM      4  H   UNL     1       0.153   2.041   0.553  1.00  0.00     0.164 HD
ENDROOT
BRANCH   1   5
ATOM      5  C   UNL     1      -1.472   1.715  -0.857  1.00  0.00     0.205 C 
ATOM      6  C   UNL     1      -4.424  -0.229   2.790  1.00  0.00     0.026 C 
ATOM      7  C   UNL     1      -4.276   0.086   1.299  1.00  0.00     0.044 C 
ATOM      8  C   UNL     1      -5.309  -0.707   0.485  1.00  0.00     0.026 C 
ATOM      9  S   UNL     1      -2.583  -0.450   0.753  1.00  0.00    -0.125 SA
ATOM     10  C   UNL     1      -4.270   1.604   1.017  1.00  0.00     0.211 C 
ATOM     11  C   UNL     1      -2.631   0.706  -0.674  1.00  0.00     0.176 C 
ATOM     12  N   UNL     1      -3.463   1.823  -0.187  1.00  0.00    -0.311 N 
ATOM     13  C   UNL     1      -2.413   2.700  -0.129  1.00  0.00     0.250 C 
ATOM     14  O   UNL     1      -2.299   3.766   0.432  1.00  0.00    -0.272 OA
BRANCH  10  15
ATOM     15  C   UNL     1      -5.672   2.197   0.919  1.00  0.00     0.327 C 
ATOM     16  O   UNL     1      -6.523   2.150   1.797  1.00  0.00    -0.250 OA
BRANCH  15  17
ATOM     17  O   UNL     1      -5.958   2.786  -0.259  1.00  0.00    -0.480 OA
ATOM     18  H   UNL     1      -6.871   3.130  -0.153  1.00  0.00     0.296 HD
ENDBRANCH  15  17
ENDBRANCH  10  15
ENDBRANCH   1   5
BRANCH   2  19
ATOM     19  C   UNL     1       1.964   0.237   0.158  1.00  0.00     0.203 C 
BRANCH  19  20
ATOM     20  N   UNL     1       2.959  -0.335  -0.743  1.00  0.00    -0.322 N 
ATOM     21  C   UNL     1       3.652   0.515  -1.580  1.00  0.00     0.326 C 
ATOM     22  H   UNL     1       2.638  -1.183  -1.182  1.00  0.00     0.166 HD
ATOM     23  O   UNL     1       3.494   1.729  -1.501  1.00  0.00    -0.248 OA
BRANCH  21  24
ATOM     24  N   UNL     1       4.503  -0.120  -2.460  1.00  0.00    -0.244 N 
ATOM     25  C   UNL     1       4.815  -1.538  -2.466  1.00  0.00     0.154 C 
ATOM     26  C   UNL     1       5.438   0.561  -3.263  1.00  0.00     0.325 C 
ATOM     27  C   UNL     1       5.774  -1.706  -3.632  1.00  0.00     0.140 C 
ATOM     28  N   UNL     1       6.285  -0.387  -3.837  1.00  0.00    -0.336 N 
ATOM     29  O   UNL     1       5.539   1.752  -3.512  1.00  0.00    -0.248 OA
ATOM     30  H   UNL     1       6.879  -0.090  -4.602  1.00  0.00     0.165 HD
ENDBRANCH  21  24
ENDBRANCH  19  20
BRANCH  19  31
ATOM     31  C   UNL     1       1.793  -0.662   1.370  1.00  0.00    -0.016 A 
ATOM     32  C   UNL     1       2.430  -0.323   2.576  1.00  0.00     0.006 A 
ATOM     33  C   UNL     1       1.049  -1.854   1.317  1.00  0.00     0.006 A 
ATOM     34  C   UNL     1       2.306  -1.138   3.703  1.00  0.00     0.000 A 
ATOM     35  C   UNL     1       0.923  -2.666   2.447  1.00  0.00     0.000 A 
ATOM     36  C   UNL     1       1.550  -2.308   3.639  1.00  0.00     0.000 A 
ENDBRANCH  19  31
ENDBRANCH   2  19
TORSDOF 7
