REMARK SMILES CC(CN1CC(=O)NC(=O)C1)N1CC(=O)NC(=O)C1
REMARK SMILES IDX 1 1 2 2 3 3 4 4 5 5 11 6 6 7 9 8 7 9 8 10 10 11 12 13 13 14
REMARK SMILES IDX 19 15 14 16 17 17 15 18 16 19 18 20
REMARK H PARENT 8 12 16 21
REMARK Flexibility Score: inf
ROOT
ATOM      1  C   UNL     1       0.219  -2.186   0.629  1.00  0.00     0.026 C 
ATOM      2  C   UNL     1      -0.346  -1.204  -0.416  1.00  0.00     0.068 C 
ENDROOT
BRANCH   2   3
ATOM      3  C   UNL     1       0.839  -0.391  -1.066  1.00  0.00     0.104 C 
BRANCH   3   4
ATOM      4  N   UNL     1       1.181   0.933  -0.500  1.00  0.00    -0.284 NA
ATOM      5  C   UNL     1       1.588   0.920   0.916  1.00  0.00     0.185 C 
ATOM      6  C   UNL     1       2.221   1.615  -1.301  1.00  0.00     0.185 C 
ATOM      7  C   UNL     1       2.943   0.249   1.120  1.00  0.00     0.240 C 
ATOM      8  C   UNL     1       3.606   0.997  -1.111  1.00  0.00     0.240 C 
ATOM      9  O   UNL     1       3.234  -0.378   2.136  1.00  0.00    -0.273 OA
ATOM     10  N   UNL     1       3.857   0.419   0.109  1.00  0.00    -0.294 N 
ATOM     11  O   UNL     1       4.474   1.033  -1.981  1.00  0.00    -0.273 OA
ATOM     12  H   UNL     1       4.762  -0.011   0.234  1.00  0.00     0.172 HD
ENDBRANCH   3   4
ENDBRANCH   2   3
BRANCH   2  13
ATOM     13  N   UNL     1      -1.445  -0.353   0.119  1.00  0.00    -0.281 NA
ATOM     14  C   UNL     1      -2.503  -1.137   0.794  1.00  0.00     0.186 C 
ATOM     15  C   UNL     1      -2.061   0.460  -0.959  1.00  0.00     0.186 C 
ATOM     16  C   UNL     1      -3.623  -0.240   1.321  1.00  0.00     0.240 C 
ATOM     17  C   UNL     1      -3.160   1.370  -0.416  1.00  0.00     0.240 C 
ATOM     18  O   UNL     1      -4.454  -0.638   2.135  1.00  0.00    -0.273 OA
ATOM     19  N   UNL     1      -3.722   1.013   0.779  1.00  0.00    -0.294 N 
ATOM     20  O   UNL     1      -3.595   2.328  -1.052  1.00  0.00    -0.273 OA
ATOM     21  H   UNL     1      -4.506   1.569   1.084  1.00  0.00     0.172 HD
ENDBRANCH   2  13
TORSDOF 3
