REMARK SMILES C[N+]1(C)[C@@H]2C[C@@H](OC(=O)C(O)(c3cccs3)c3cccs3)C[C@H]1[C@@H]1O[C@@H]12
REMARK SMILES IDX 8 1 9 2 7 3 6 4 1 5 2 6 3 7 4 8 23 9 5 10 26 11 22 12 24 13
REMARK SMILES IDX 25 14 10 15 11 16 12 18 13 19 16 20 14 21 15 22 17 23 18 24
REMARK SMILES IDX 21 25 19 26 20 27
REMARK H PARENT 11 17
REMARK Flexibility Score: inf
ROOT
ATOM      1  C   UNL     1      -1.209  -1.017  -0.314  1.00  0.00     0.349 C 
ATOM      2  O   UNL     1      -1.132  -2.176  -0.702  1.00  0.00    -0.248 OA
ENDROOT
BRANCH   1   3
ATOM      3  O   UNL     1      -0.153  -0.135  -0.405  1.00  0.00    -0.459 OA
BRANCH   3   4
ATOM      4  C   UNL     1       1.041  -0.613  -1.064  1.00  0.00     0.188 C 
ATOM      5  C   UNL     1       5.001   0.959   0.268  1.00  0.00     0.334 C 
ATOM      6  N   UNL     1       3.766   0.284  -0.362  1.00  0.00    -0.319 N 
ATOM      7  C   UNL     1       4.346  -0.595  -1.465  1.00  0.00     0.334 C 
ATOM      8  C   UNL     1       2.900  -0.434   0.717  1.00  0.00     0.221 C 
ATOM      9  C   UNL     1       2.705   1.342  -0.798  1.00  0.00     0.221 C 
ATOM     10  C   UNL     1       1.911  -1.363  -0.022  1.00  0.00     0.113 C 
ATOM     11  C   UNL     1       2.085   0.640   1.426  1.00  0.00     0.212 C 
ATOM     12  C   UNL     1       1.696   0.630  -1.723  1.00  0.00     0.113 C 
ATOM     13  C   UNL     1       1.961   1.774   0.459  1.00  0.00     0.212 C 
ATOM     14  O   UNL     1       2.693   1.908   1.680  1.00  0.00    -0.357 OA
ENDBRANCH   3   4
ENDBRANCH   1   3
BRANCH   1  15
ATOM     15  C   UNL     1      -2.436  -0.322   0.350  1.00  0.00     0.231 C 
BRANCH  15  16
ATOM     16  O   UNL     1      -2.001   0.323   1.564  1.00  0.00    -0.369 OA
ATOM     17  H   UNL     1      -2.112  -0.331   2.278  1.00  0.00     0.213 HD
ENDBRANCH  15  16
BRANCH  15  18
ATOM     18  C   UNL     1      -2.959   0.795  -0.546  1.00  0.00     0.053 A 
ATOM     19  C   UNL     1      -3.484   2.021  -0.166  1.00  0.00     0.019 A 
ATOM     20  S   UNL     1      -2.995   0.634  -2.264  1.00  0.00    -0.145 S 
ATOM     21  C   UNL     1      -3.901   2.816  -1.271  1.00  0.00     0.012 A 
ATOM     22  C   UNL     1      -3.690   2.179  -2.471  1.00  0.00     0.065 A 
ENDBRANCH  15  18
BRANCH  15  23
ATOM     23  C   UNL     1      -3.494  -1.344   0.741  1.00  0.00     0.053 A 
ATOM     24  C   UNL     1      -4.766  -1.550   0.230  1.00  0.00     0.019 A 
ATOM     25  S   UNL     1      -3.174  -2.462   2.022  1.00  0.00    -0.145 S 
ATOM     26  C   UNL     1      -5.459  -2.616   0.874  1.00  0.00     0.012 A 
ATOM     27  C   UNL     1      -4.705  -3.197   1.866  1.00  0.00     0.065 A 
ENDBRANCH  15  23
ENDBRANCH   1  15
TORSDOF 6
