REMARK SMILES CCN(CCO)CCCC(C)Nc1ccnc2cc(Cl)ccc12
REMARK SMILES IDX 7 1 3 2 2 3 1 4 4 5 5 6 6 7 8 9 9 10 10 11 11 12 12 13 13 15
REMARK SMILES IDX 14 16 23 17 15 18 17 19 22 20 16 21 18 22 21 23 19 24 20 25
REMARK H PARENT 6 8 12 14
REMARK Flexibility Score: inf
ROOT
ATOM      1  C   UNL     1      -2.496   0.008  -0.346  1.00  0.00     0.084 C 
ENDROOT
BRANCH   1   2
ATOM      2  N   UNL     1      -3.900   0.125   0.101  1.00  0.00    -0.301 NA
BRANCH   2   3
ATOM      3  C   UNL     1      -4.834   0.126  -1.045  1.00  0.00     0.081 C 
ATOM      4  C   UNL     1      -4.597   1.242  -2.061  1.00  0.00     0.021 C 
ENDBRANCH   2   3
BRANCH   2   5
ATOM      5  C   UNL     1      -4.246  -0.938   1.077  1.00  0.00     0.112 C 
BRANCH   5   6
ATOM      6  C   UNL     1      -5.701  -0.954   1.591  1.00  0.00     0.171 C 
BRANCH   6   7
ATOM      7  O   UNL     1      -6.578  -1.643   0.703  1.00  0.00    -0.395 OA
ATOM      8  H   UNL     1      -6.227  -2.542   0.582  1.00  0.00     0.210 HD
ENDBRANCH   6   7
ENDBRANCH   5   6
ENDBRANCH   2   5
ENDBRANCH   1   2
BRANCH   1   9
ATOM      9  C   UNL     1      -1.463   0.131   0.787  1.00  0.00     0.018 C 
BRANCH   9  10
ATOM     10  C   UNL     1      -0.036   0.196   0.227  1.00  0.00     0.026 C 
BRANCH  10  11
ATOM     11  C   UNL     1       1.023   0.427   1.317  1.00  0.00     0.076 C 
ATOM     12  C   UNL     1       1.117  -0.662   2.383  1.00  0.00     0.031 C 
BRANCH  11  13
ATOM     13  N   UNL     1       2.335   0.762   0.747  1.00  0.00    -0.382 N 
ATOM     14  H   UNL     1       2.358   1.732   0.441  1.00  0.00     0.160 HD
BRANCH  13  15
ATOM     15  C   UNL     1       3.172  -0.030  -0.044  1.00  0.00     0.045 A 
ATOM     16  C   UNL     1       2.903  -1.366  -0.331  1.00  0.00     0.046 A 
ATOM     17  C   UNL     1       4.416   0.501  -0.507  1.00  0.00     0.023 A 
ATOM     18  C   UNL     1       3.790  -2.091  -1.107  1.00  0.00     0.114 A 
ATOM     19  C   UNL     1       5.249  -0.330  -1.298  1.00  0.00     0.074 A 
ATOM     20  C   UNL     1       4.876   1.811  -0.214  1.00  0.00     0.014 A 
ATOM     21  N   UNL     1       4.937  -1.595  -1.602  1.00  0.00    -0.256 NA
ATOM     22  C   UNL     1       6.452   0.161  -1.782  1.00  0.00     0.049 A 
ATOM     23  C   UNL     1       6.092   2.285  -0.707  1.00  0.00     0.021 A 
ATOM     24  C   UNL     1       6.873   1.455  -1.496  1.00  0.00     0.043 A 
ATOM     25  Cl  UNL     1       8.374   2.027  -2.112  1.00  0.00    -0.084 Cl
ENDBRANCH  13  15
ENDBRANCH  11  13
ENDBRANCH  10  11
ENDBRANCH   9  10
ENDBRANCH   1   9
TORSDOF 10
