REMARK SMILES COc1ccc2[nH]c([S@@+]([O-])Cc3ncc(C)c(OC)c3C)nc2c1
REMARK SMILES IDX 11 1 9 2 10 3 8 4 3 5 4 6 24 7 5 8 23 9 6 10 22 11 7 12 2 14
REMARK SMILES IDX 1 15 12 16 13 17 20 18 14 19 17 20 21 21 15 22 16 23 18 24
REMARK SMILES IDX 19 25
REMARK H PARENT 7 13
REMARK Flexibility Score: inf
ROOT
ATOM      1  C   UNL     1      -1.354  -2.103  -1.604  1.00  0.00     0.342 C 
ENDROOT
BRANCH   1   2
ATOM      2  S   UNL     1       0.199  -2.395  -2.508  1.00  0.00     0.030 S 
ATOM      3  O   UNL     1       0.400  -4.041  -2.687  1.00  0.00    -0.609 OA
BRANCH   2   4
ATOM      4  C   UNL     1       1.334  -1.955  -1.179  1.00  0.00     0.322 A 
ATOM      5  C   UNL     1       3.847  -0.422   2.223  1.00  0.00     0.121 A 
ATOM      6  C   UNL     1       4.486  -1.655   2.039  1.00  0.00     0.049 A 
ATOM      7  C   UNL     1       2.764  -0.063   1.412  1.00  0.00     0.077 A 
ATOM      8  C   UNL     1       4.078  -2.565   1.056  1.00  0.00     0.032 A 
ATOM      9  C   UNL     1       2.340  -0.961   0.419  1.00  0.00     0.097 A 
ATOM     10  C   UNL     1       2.999  -2.176   0.265  1.00  0.00     0.070 A 
ATOM     11  N   UNL     1       1.309  -0.842  -0.481  1.00  0.00    -0.184 NA
ATOM     12  N   UNL     1       2.341  -2.786  -0.768  1.00  0.00    -0.297 N 
ATOM     13  H   UNL     1       2.520  -3.702  -1.159  1.00  0.00     0.173 HD
BRANCH   5  14
ATOM     14  O   UNL     1       4.375   0.343   3.229  1.00  0.00    -0.497 OA
ATOM     15  C   UNL     1       3.750   1.597   3.475  1.00  0.00     0.278 C 
ENDBRANCH   5  14
ENDBRANCH   2   4
ENDBRANCH   1   2
BRANCH   1  16
ATOM     16  C   UNL     1      -1.754  -0.648  -1.588  1.00  0.00     0.097 A 
ATOM     17  N   UNL     1      -1.877  -0.073  -2.815  1.00  0.00    -0.255 NA
ATOM     18  C   UNL     1      -2.039   0.046  -0.403  1.00  0.00     0.018 A 
ATOM     19  C   UNL     1      -2.225   1.230  -2.877  1.00  0.00     0.118 A 
ATOM     20  C   UNL     1      -2.456   1.383  -0.528  1.00  0.00     0.128 A 
ATOM     21  C   UNL     1      -1.916  -0.607   0.945  1.00  0.00     0.050 C 
ATOM     22  C   UNL     1      -2.506   2.015  -1.772  1.00  0.00     0.010 A 
ATOM     23  C   UNL     1      -2.884   3.453  -1.939  1.00  0.00     0.050 C 
BRANCH  20  24
ATOM     24  O   UNL     1      -2.754   2.112   0.599  1.00  0.00    -0.496 OA
ATOM     25  C   UNL     1      -4.147   2.010   0.902  1.00  0.00     0.278 C 
ENDBRANCH  20  24
ENDBRANCH   1  16
TORSDOF 5
