REMARK SMILES CCC(=O)C(CC(C)N(C)C)(c1ccccc1)c1ccccc1
REMARK SMILES IDX 6 1 5 2 3 3 4 4 2 5 1 6 12 7 13 8 17 9 14 10 16 11 15 12
REMARK SMILES IDX 18 13 19 14 23 15 20 16 22 17 21 18 7 19 8 20 9 21 10 22
REMARK SMILES IDX 11 23
REMARK H PARENT
REMARK Flexibility Score: inf
ROOT
ATOM      1  C   UNL     1       0.774   0.924  -0.040  1.00  0.00     0.043 C 
ENDROOT
BRANCH   1   2
ATOM      2  C   UNL     1      -0.671   0.278   0.000  1.00  0.00     0.080 C 
BRANCH   2   3
ATOM      3  C   UNL     1      -0.948  -0.013   1.515  1.00  0.00     0.147 C 
ATOM      4  O   UNL     1      -1.033   0.907   2.339  1.00  0.00    -0.298 OA
BRANCH   3   5
ATOM      5  C   UNL     1      -1.071  -1.459   1.993  1.00  0.00     0.073 C 
ATOM      6  C   UNL     1      -0.972  -1.583   3.505  1.00  0.00     0.012 C 
ENDBRANCH   3   5
ENDBRANCH   2   3
BRANCH   2   7
ATOM      7  C   UNL     1      -1.647   1.367  -0.582  1.00  0.00    -0.030 A 
ATOM      8  C   UNL     1      -2.760   1.859   0.122  1.00  0.00     0.005 A 
ATOM      9  C   UNL     1      -1.450   1.847  -1.895  1.00  0.00     0.005 A 
ATOM     10  C   UNL     1      -3.616   2.809  -0.447  1.00  0.00     0.000 A 
ATOM     11  C   UNL     1      -2.307   2.794  -2.463  1.00  0.00     0.000 A 
ATOM     12  C   UNL     1      -3.388   3.278  -1.737  1.00  0.00     0.000 A 
ENDBRANCH   2   7
BRANCH   2  13
ATOM     13  C   UNL     1      -0.840  -0.999  -0.875  1.00  0.00    -0.030 A 
ATOM     14  C   UNL     1       0.222  -1.617  -1.555  1.00  0.00     0.005 A 
ATOM     15  C   UNL     1      -2.125  -1.566  -1.037  1.00  0.00     0.005 A 
ATOM     16  C   UNL     1       0.018  -2.764  -2.331  1.00  0.00     0.000 A 
ATOM     17  C   UNL     1      -2.328  -2.710  -1.813  1.00  0.00     0.000 A 
ATOM     18  C   UNL     1      -1.254  -3.312  -2.456  1.00  0.00     0.000 A 
ENDBRANCH   2  13
ENDBRANCH   1   2
BRANCH   1  19
ATOM     19  C   UNL     1       1.930   0.177   0.699  1.00  0.00     0.054 C 
ATOM     20  C   UNL     1       2.225   0.790   2.080  1.00  0.00     0.024 C 
BRANCH  19  21
ATOM     21  N   UNL     1       3.124   0.131  -0.181  1.00  0.00    -0.307 NA
ATOM     22  C   UNL     1       3.813   1.414  -0.335  1.00  0.00     0.105 C 
ATOM     23  C   UNL     1       4.074  -0.910   0.212  1.00  0.00     0.105 C 
ENDBRANCH  19  21
ENDBRANCH   1  19
TORSDOF 7
