REMARK SMILES CN1CCN(C(=O)O[C@H]2c3nccnc3C(=O)N2c2ccc(Cl)cn2)CC1
REMARK SMILES IDX 9 1 10 2 11 3 12 4 13 5 14 6 15 7 16 8 17 9 18 10 8 11 6 12
REMARK SMILES IDX 1 13 2 14 3 15 27 16 4 17 26 18 5 19 7 20 19 21 20 22 25 23
REMARK SMILES IDX 21 24 24 25 22 26 23 27
REMARK H PARENT
REMARK Flexibility Score: inf
ROOT
ATOM      1  C   UNL     1      -1.457   1.151   0.732  1.00  0.00     0.338 C 
ATOM      2  C   UNL     1      -1.962   2.446   0.144  1.00  0.00     0.134 A 
ATOM      3  N   UNL     1      -1.319   3.635   0.079  1.00  0.00    -0.251 NA
ATOM      4  C   UNL     1      -2.038   4.614  -0.528  1.00  0.00     0.131 A 
ATOM      5  C   UNL     1      -3.323   4.409  -1.039  1.00  0.00     0.132 A 
ATOM      6  N   UNL     1      -3.961   3.214  -0.971  1.00  0.00    -0.247 NA
ATOM      7  C   UNL     1      -3.228   2.259  -0.367  1.00  0.00     0.156 A 
ATOM      8  C   UNL     1      -3.639   0.868  -0.129  1.00  0.00     0.283 C 
ATOM      9  O   UNL     1      -4.720   0.414  -0.459  1.00  0.00    -0.267 OA
ATOM     10  N   UNL     1      -2.588   0.250   0.538  1.00  0.00    -0.248 N 
ENDROOT
BRANCH   1  11
ATOM     11  O   UNL     1      -0.363   0.686  -0.052  1.00  0.00    -0.419 OA
BRANCH  11  12
ATOM     12  C   UNL     1       0.854   0.933   0.491  1.00  0.00     0.412 C 
ATOM     13  C   UNL     1       4.345  -2.095  -1.177  1.00  0.00     0.105 C 
ATOM     14  N   UNL     1       4.142  -0.770  -1.758  1.00  0.00    -0.303 NA
ATOM     15  C   UNL     1       4.339   0.303  -0.762  1.00  0.00     0.106 C 
ATOM     16  C   UNL     1       2.801  -0.632  -2.360  1.00  0.00     0.106 C 
ATOM     17  C   UNL     1       3.227   0.421   0.296  1.00  0.00     0.138 C 
ATOM     18  C   UNL     1       1.638  -0.538  -1.354  1.00  0.00     0.138 C 
ATOM     19  N   UNL     1       1.887   0.433  -0.287  1.00  0.00    -0.306 N 
ATOM     20  O   UNL     1       1.026   1.525   1.550  1.00  0.00    -0.224 OA
ENDBRANCH  11  12
ENDBRANCH   1  11
BRANCH  10  21
ATOM     21  C   UNL     1      -2.545  -1.056   1.054  1.00  0.00     0.138 A 
ATOM     22  C   UNL     1      -3.587  -1.963   0.875  1.00  0.00     0.049 A 
ATOM     23  N   UNL     1      -1.433  -1.397   1.749  1.00  0.00    -0.237 NA
ATOM     24  C   UNL     1      -3.488  -3.248   1.418  1.00  0.00     0.026 A 
ATOM     25  C   UNL     1      -1.360  -2.649   2.269  1.00  0.00     0.134 A 
ATOM     26  C   UNL     1      -2.353  -3.599   2.130  1.00  0.00     0.059 A 
ATOM     27  Cl  UNL     1      -2.188  -5.163   2.812  1.00  0.00    -0.083 Cl
ENDBRANCH  10  21
TORSDOF 3
