REMARK SMILES CC(COc1ccccc1)NN
REMARK SMILES IDX 1 1 2 2 3 3 4 4 5 5 6 6 10 7 7 8 9 9 8 10 11 11 12 13
REMARK H PARENT 11 12 12 14 12 15
REMARK Flexibility Score: inf
ROOT
ATOM      1  C   UNL     1      -2.957   1.529   0.303  1.00  0.00     0.029 C 
ATOM      2  C   UNL     1      -2.114   0.352  -0.201  1.00  0.00     0.104 C 
ENDROOT
BRANCH   2   3
ATOM      3  C   UNL     1      -0.622   0.620   0.112  1.00  0.00     0.249 C 
BRANCH   3   4
ATOM      4  O   UNL     1       0.189  -0.345  -0.565  1.00  0.00    -0.492 OA
BRANCH   4   5
ATOM      5  C   UNL     1       1.541  -0.264  -0.381  1.00  0.00     0.119 A 
ATOM      6  C   UNL     1       2.214   0.699   0.372  1.00  0.00     0.046 A 
ATOM      7  C   UNL     1       2.277  -1.259  -1.031  1.00  0.00     0.046 A 
ATOM      8  C   UNL     1       3.609   0.664   0.473  1.00  0.00     0.004 A 
ATOM      9  C   UNL     1       3.669  -1.295  -0.932  1.00  0.00     0.004 A 
ATOM     10  C   UNL     1       4.336  -0.332  -0.178  1.00  0.00     0.000 A 
ENDBRANCH   4   5
ENDBRANCH   3   4
ENDBRANCH   2   3
BRANCH   2  11
ATOM     11  N   UNL     1      -2.543  -0.919   0.433  1.00  0.00    -0.254 NA
ATOM     12  H   UNL     1      -2.567  -0.791   1.450  1.00  0.00     0.141 HD
BRANCH  11  13
ATOM     13  N   UNL     1      -3.831  -1.327  -0.084  1.00  0.00    -0.271 NA
ATOM     14  H   UNL     1      -4.117  -2.218   0.336  1.00  0.00     0.137 HD
ATOM     15  H   UNL     1      -3.762  -1.536  -1.086  1.00  0.00     0.137 HD
ENDBRANCH  11  13
ENDBRANCH   2  11
TORSDOF 5
