REMARK SMILES CN1CCCN=C1/C=C/c1cccs1
REMARK SMILES IDX 8 1 9 2 7 3 1 4 2 5 3 6 4 7 6 8 5 9 10 10 11 11 14 12 12 13
REMARK SMILES IDX 13 14
REMARK H PARENT
REMARK Flexibility Score: inf
ROOT
ATOM      1  C   UNL     1       0.425   0.582   0.441  1.00  0.00     0.048 C 
ATOM      2  C   UNL     1       1.408  -0.192  -0.039  1.00  0.00     0.023 C 
ENDROOT
BRANCH   1   3
ATOM      3  C   UNL     1      -1.007   0.160   0.341  1.00  0.00     0.123 C 
ATOM      4  C   UNL     1      -1.093  -0.002  -2.132  1.00  0.00     0.145 C 
ATOM      5  N   UNL     1      -1.548  -0.420  -0.806  1.00  0.00    -0.360 N 
ATOM      6  C   UNL     1      -2.946  -0.851  -0.783  1.00  0.00     0.119 C 
ATOM      7  C   UNL     1      -3.355  -1.208   0.629  1.00  0.00     0.045 C 
ATOM      8  N   UNL     1      -1.664   0.381   1.439  1.00  0.00    -0.268 NA
ATOM      9  C   UNL     1      -3.069  -0.008   1.506  1.00  0.00     0.146 C 
ENDBRANCH   1   3
BRANCH   2  10
ATOM     10  C   UNL     1       2.786   0.157   0.081  1.00  0.00     0.027 A 
ATOM     11  C   UNL     1       3.409   1.228   0.702  1.00  0.00     0.020 A 
ATOM     12  S   UNL     1       3.967  -0.873  -0.647  1.00  0.00    -0.144 S 
ATOM     13  C   UNL     1       4.830   1.201   0.582  1.00  0.00     0.012 A 
ATOM     14  C   UNL     1       5.263   0.109  -0.131  1.00  0.00     0.065 A 
ENDBRANCH   2  10
TORSDOF 2
