REMARK SMILES CC(C)NCC(O)COc1cccc2ccccc12
REMARK SMILES IDX 6 1 5 2 4 3 2 5 1 6 3 7 7 8 8 10 9 11 10 12 11 13 19 14
REMARK SMILES IDX 12 15 14 16 18 17 13 18 15 19 17 20 16 21
REMARK H PARENT 4 4 7 9
REMARK Flexibility Score: inf
ROOT
ATOM      1  C   UNL     1      -1.248  -1.320  -1.283  1.00  0.00     0.165 C 
ENDROOT
BRANCH   1   2
ATOM      2  C   UNL     1      -1.929  -0.597  -0.102  1.00  0.00     0.116 C 
BRANCH   2   3
ATOM      3  N   UNL     1      -3.349  -0.370  -0.436  1.00  0.00    -0.312 NA
ATOM      4  H   UNL     1      -3.408   0.292  -1.212  1.00  0.00     0.123 HD
BRANCH   3   5
ATOM      5  C   UNL     1      -4.125   0.141   0.702  1.00  0.00     0.047 C 
ATOM      6  C   UNL     1      -3.769   1.587   1.053  1.00  0.00     0.024 C 
ATOM      7  C   UNL     1      -5.607   0.046   0.334  1.00  0.00     0.024 C 
ENDBRANCH   3   5
ENDBRANCH   2   3
ENDBRANCH   1   2
BRANCH   1   8
ATOM      8  O   UNL     1      -2.011  -2.487  -1.617  1.00  0.00    -0.388 OA
ATOM      9  H   UNL     1      -2.940  -2.226  -1.439  1.00  0.00     0.211 HD
ENDBRANCH   1   8
BRANCH   1  10
ATOM     10  C   UNL     1       0.191  -1.726  -0.954  1.00  0.00     0.262 C 
BRANCH  10  11
ATOM     11  O   UNL     1       0.954  -0.555  -0.666  1.00  0.00    -0.490 OA
BRANCH  11  12
ATOM     12  C   UNL     1       2.254  -0.722  -0.252  1.00  0.00     0.127 A 
ATOM     13  C   UNL     1       2.916  -1.954  -0.236  1.00  0.00     0.047 A 
ATOM     14  C   UNL     1       2.930   0.453   0.167  1.00  0.00     0.024 A 
ATOM     15  C   UNL     1       4.238  -2.038   0.198  1.00  0.00     0.004 A 
ATOM     16  C   UNL     1       4.273   0.356   0.607  1.00  0.00    -0.015 A 
ATOM     17  C   UNL     1       2.324   1.729   0.170  1.00  0.00     0.012 A 
ATOM     18  C   UNL     1       4.910  -0.892   0.617  1.00  0.00     0.009 A 
ATOM     19  C   UNL     1       4.956   1.510   1.028  1.00  0.00     0.009 A 
ATOM     20  C   UNL     1       3.015   2.867   0.591  1.00  0.00     0.001 A 
ATOM     21  C   UNL     1       4.332   2.756   1.021  1.00  0.00     0.001 A 
ENDBRANCH  11  12
ENDBRANCH  10  11
ENDBRANCH   1  10
TORSDOF 7
