REMARK SMILES CNCCCOc1cc(F)c(-c2c(Cl)nc3ncnn3c2N[C@@H](C)C(F)(F)F)c(F)c1
REMARK SMILES IDX 7 1 8 2 9 3 10 4 11 5 29 6 30 7 31 8 6 9 5 10 4 11 3 12 2 13
REMARK SMILES IDX 1 14 12 16 21 17 13 18 20 19 15 20 14 21 19 22 16 23 18 24
REMARK SMILES IDX 17 25 22 26 23 28 24 29 25 30 26 31 27 32 28 33
REMARK H PARENT 2 15 22 27
REMARK Flexibility Score: inf
ROOT
ATOM      1  C   UNL     1       1.626   1.113   0.351  1.00  0.00     0.125 A 
ATOM      2  C   UNL     1       0.688   1.662   1.230  1.00  0.00     0.086 A 
ATOM      3  C   UNL     1      -0.453   0.944   1.580  1.00  0.00     0.137 A 
ATOM      4  F   UNL     1      -1.336   1.500   2.421  1.00  0.00    -0.206 F 
ATOM      5  C   UNL     1      -0.687  -0.330   1.066  1.00  0.00     0.060 A 
ATOM      6  C   UNL     1       0.259  -0.869   0.195  1.00  0.00     0.137 A 
ATOM      7  F   UNL     1       0.076  -2.097  -0.312  1.00  0.00    -0.206 F 
ATOM      8  C   UNL     1       1.408  -0.163  -0.165  1.00  0.00     0.086 A 
ENDROOT
BRANCH   1   9
ATOM      9  O   UNL     1       2.697   1.919   0.096  1.00  0.00    -0.493 OA
BRANCH   9  10
ATOM     10  C   UNL     1       3.678   1.495  -0.853  1.00  0.00     0.231 C 
BRANCH  10  11
ATOM     11  C   UNL     1       4.759   0.657  -0.173  1.00  0.00     0.057 C 
BRANCH  11  12
ATOM     12  C   UNL     1       5.841   0.247  -1.171  1.00  0.00     0.084 C 
BRANCH  12  13
ATOM     13  N   UNL     1       6.866  -0.623  -0.595  1.00  0.00    -0.320 NA
ATOM     14  C   UNL     1       7.792   0.089   0.274  1.00  0.00     0.101 C 
ATOM     15  H   UNL     1       6.431  -1.386  -0.077  1.00  0.00     0.122 HD
ENDBRANCH  12  13
ENDBRANCH  11  12
ENDBRANCH  10  11
ENDBRANCH   9  10
ENDBRANCH   1   9
BRANCH   5  16
ATOM     16  C   UNL     1      -1.891  -1.087   1.433  1.00  0.00     0.068 C 
ATOM     17  C   UNL     1      -3.083  -0.930   0.799  1.00  0.00     0.143 C 
ATOM     18  C   UNL     1      -1.838  -2.100   2.550  1.00  0.00     0.144 C 
ATOM     19  N   UNL     1      -4.163  -1.749   1.246  1.00  0.00    -0.180 N 
ATOM     20  N   UNL     1      -2.826  -2.835   2.951  1.00  0.00    -0.198 NA
ATOM     21  Cl  UNL     1      -0.366  -2.360   3.433  1.00  0.00    -0.061 Cl
ATOM     22  N   UNL     1      -5.452  -1.814   0.806  1.00  0.00    -0.151 NA
ATOM     23  C   UNL     1      -4.006  -2.669   2.298  1.00  0.00     0.255 A 
ATOM     24  C   UNL     1      -5.981  -2.748   1.592  1.00  0.00     0.249 A 
ATOM     25  N   UNL     1      -5.145  -3.290   2.510  1.00  0.00    -0.197 NA
BRANCH  17  26
ATOM     26  N   UNL     1      -3.256  -0.019  -0.263  1.00  0.00    -0.358 N 
ATOM     27  H   UNL     1      -2.475   0.617  -0.421  1.00  0.00     0.162 HD
BRANCH  26  28
ATOM     28  C   UNL     1      -4.515   0.455  -0.892  1.00  0.00     0.183 C 
ATOM     29  C   UNL     1      -5.196   1.452   0.047  1.00  0.00     0.041 C 
BRANCH  28  30
ATOM     30  C   UNL     1      -4.261   1.134  -2.261  1.00  0.00     0.408 C 
ATOM     31  F   UNL     1      -5.403   1.599  -2.811  1.00  0.00    -0.169 F 
ATOM     32  F   UNL     1      -3.704   0.273  -3.144  1.00  0.00    -0.169 F 
ATOM     33  F   UNL     1      -3.409   2.180  -2.130  1.00  0.00    -0.169 F 
ENDBRANCH  28  30
ENDBRANCH  26  28
ENDBRANCH  17  26
ENDBRANCH   5  16
TORSDOF 9
