REMARK SMILES CN1CCN(c2ccc(Nc3ncc4cc5n(c4n3)C3(CCCCC3)CNC5=O)nc2)CC1
REMARK SMILES IDX 6 1 7 2 8 3 9 4 30 5 31 6 5 7 1 8 2 9 3 10 33 11 4 12 32 13
REMARK SMILES IDX 10 14 11 16 12 17 19 18 13 19 18 20 14 21 17 22 15 23 16 24
REMARK SMILES IDX 20 25 28 26 21 27 26 28 25 29 27 30 29 31 22 32 24 33 23 35
REMARK H PARENT 10 15 27 34
REMARK Flexibility Score: inf
ROOT
ATOM      1  C   UNL     1       4.241   0.276   0.026  1.00  0.00     0.055 A 
ATOM      2  C   UNL     1       3.652  -0.958   0.301  1.00  0.00     0.031 A 
ATOM      3  C   UNL     1       2.260  -1.128   0.273  1.00  0.00     0.049 A 
ATOM      4  C   UNL     1       1.438  -0.056  -0.032  1.00  0.00     0.132 A 
ATOM      5  N   UNL     1       1.966   1.155  -0.303  1.00  0.00    -0.237 NA
ATOM      6  C   UNL     1       3.320   1.285  -0.266  1.00  0.00     0.139 A 
ENDROOT
BRANCH   1   7
ATOM      7  N   UNL     1       5.608   0.473   0.046  1.00  0.00    -0.368 N 
ATOM      8  C   UNL     1       9.438   1.915   0.516  1.00  0.00     0.105 C 
ATOM      9  N   UNL     1       8.586   0.841   0.014  1.00  0.00    -0.303 NA
ATOM     10  C   UNL     1       7.831   0.216   1.122  1.00  0.00     0.105 C 
ATOM     11  C   UNL     1       7.683   1.309  -1.058  1.00  0.00     0.105 C 
ATOM     12  C   UNL     1       6.526  -0.488   0.682  1.00  0.00     0.132 C 
ATOM     13  C   UNL     1       6.231   1.626  -0.626  1.00  0.00     0.132 C 
ENDBRANCH   1   7
BRANCH   4  14
ATOM     14  N   UNL     1       0.060  -0.114  -0.088  1.00  0.00    -0.309 N 
ATOM     15  H   UNL     1      -0.355   0.772  -0.325  1.00  0.00     0.171 HD
BRANCH  14  16
ATOM     16  C   UNL     1      -0.891  -1.101   0.110  1.00  0.00     0.230 A 
ATOM     17  N   UNL     1      -0.526  -2.356   0.441  1.00  0.00    -0.221 NA
ATOM     18  N   UNL     1      -2.160  -0.693  -0.056  1.00  0.00    -0.194 NA
ATOM     19  C   UNL     1      -1.476  -3.298   0.636  1.00  0.00     0.127 A 
ATOM     20  C   UNL     1      -3.079  -1.652   0.128  1.00  0.00     0.146 A 
ATOM     21  C   UNL     1      -2.814  -2.964   0.486  1.00  0.00     0.038 A 
ATOM     22  N   UNL     1      -4.441  -1.514   0.008  1.00  0.00    -0.313 N 
ATOM     23  C   UNL     1      -4.056  -3.624   0.629  1.00  0.00     0.045 A 
ATOM     24  C   UNL     1      -5.057  -2.704   0.369  1.00  0.00     0.109 A 
ATOM     25  C   UNL     1      -5.218  -0.294  -0.318  1.00  0.00     0.064 C 
ATOM     26  C   UNL     1      -6.484  -2.878   0.463  1.00  0.00     0.268 C 
ATOM     27  C   UNL     1      -4.598   0.526  -1.483  1.00  0.00     0.031 C 
ATOM     28  C   UNL     1      -6.634  -0.769  -0.776  1.00  0.00     0.145 C 
ATOM     29  C   UNL     1      -5.309   0.591   0.952  1.00  0.00     0.031 C 
ATOM     30  N   UNL     1      -7.216  -1.785   0.075  1.00  0.00    -0.348 N 
ATOM     31  O   UNL     1      -7.041  -3.895   0.860  1.00  0.00    -0.268 OA
ATOM     32  C   UNL     1      -5.315   1.855  -1.726  1.00  0.00     0.002 C 
ATOM     33  C   UNL     1      -5.985   1.942   0.712  1.00  0.00     0.002 C 
ATOM     34  H   UNL     1      -8.210  -1.975   0.023  1.00  0.00     0.163 HD
ATOM     35  C   UNL     1      -5.362   2.698  -0.456  1.00  0.00     0.000 C 
ENDBRANCH  14  16
ENDBRANCH   4  14
TORSDOF 3
