REMARK SMILES NC(=O)N/N=C1\C=Cc2ccccc2C1=O
REMARK SMILES IDX 5 1 6 2 7 3 8 4 9 5 10 6 11 7 12 8 13 9 14 10 15 11 16 12
REMARK SMILES IDX 4 13 1 14 2 15 3 18
REMARK H PARENT 1 16 1 17 4 19
REMARK Flexibility Score: inf
ROOT
ATOM      1  N   UNL     1       1.824  -1.603  -0.476  1.00  0.00    -0.168 NA
ATOM      2  C   UNL     1       0.799  -0.802  -0.475  1.00  0.00     0.131 C 
ATOM      3  C   UNL     1       0.795   0.667  -0.721  1.00  0.00     0.035 C 
ATOM      4  C   UNL     1      -0.310   1.402  -0.552  1.00  0.00     0.011 C 
ATOM      5  C   UNL     1      -1.580   0.818  -0.125  1.00  0.00    -0.014 A 
ATOM      6  C   UNL     1      -2.685   1.644   0.120  1.00  0.00     0.009 A 
ATOM      7  C   UNL     1      -3.909   1.092   0.510  1.00  0.00     0.001 A 
ATOM      8  C   UNL     1      -4.043  -0.288   0.653  1.00  0.00     0.001 A 
ATOM      9  C   UNL     1      -2.951  -1.120   0.409  1.00  0.00     0.013 A 
ATOM     10  C   UNL     1      -1.724  -0.565   0.025  1.00  0.00     0.031 A 
ATOM     11  C   UNL     1      -0.569  -1.446  -0.241  1.00  0.00     0.213 C 
ATOM     12  O   UNL     1      -0.706  -2.662  -0.285  1.00  0.00    -0.287 OA
ENDROOT
BRANCH   1  13
ATOM     13  N   UNL     1       3.095  -1.089  -0.588  1.00  0.00    -0.228 N 
ATOM     14  N   UNL     1       4.951  -0.055   0.234  1.00  0.00    -0.350 N 
ATOM     15  C   UNL     1       3.612  -0.265   0.399  1.00  0.00     0.332 C 
ATOM     16  H   UNL     1       5.321   0.639   0.872  1.00  0.00     0.161 HD
ATOM     17  H   UNL     1       5.284   0.026  -0.716  1.00  0.00     0.161 HD
ATOM     18  O   UNL     1       3.005   0.266   1.319  1.00  0.00    -0.247 OA
ATOM     19  H   UNL     1       3.759  -1.817  -0.837  1.00  0.00     0.195 HD
ENDBRANCH   1  13
TORSDOF 1
