REMARK SMILES CCC(=O)N(c1ccccc1)C1(COC)CCN(CCc2cccs2)CC1
REMARK SMILES IDX 12 1 16 2 17 3 18 4 26 5 27 6 5 7 3 8 4 9 2 10 1 11 6 12
REMARK SMILES IDX 7 13 11 14 8 15 10 16 9 17 13 18 14 19 15 20 19 21 20 22
REMARK SMILES IDX 21 23 22 24 25 25 23 26 24 27
REMARK H PARENT
REMARK Flexibility Score: inf
ROOT
ATOM      1  C   UNL     1      -0.731   0.355  -0.115  1.00  0.00     0.073 C 
ATOM      2  C   UNL     1       0.319   1.280  -0.790  1.00  0.00     0.047 C 
ATOM      3  C   UNL     1       1.770   0.869  -0.508  1.00  0.00     0.087 C 
ATOM      4  N   UNL     1       1.946  -0.574  -0.295  1.00  0.00    -0.303 NA
ATOM      5  C   UNL     1       1.002  -1.342  -1.102  1.00  0.00     0.087 C 
ATOM      6  C   UNL     1      -0.455  -1.083  -0.683  1.00  0.00     0.047 C 
ENDROOT
BRANCH   1   7
ATOM      7  N   UNL     1      -2.129   0.888  -0.422  1.00  0.00    -0.304 N 
BRANCH   7   8
ATOM      8  C   UNL     1      -2.526   2.155   0.043  1.00  0.00     0.227 C 
ATOM      9  O   UNL     1      -1.747   2.939   0.591  1.00  0.00    -0.275 OA
BRANCH   8  10
ATOM     10  C   UNL     1      -3.994   2.543  -0.139  1.00  0.00     0.097 C 
ATOM     11  C   UNL     1      -4.340   3.843   0.572  1.00  0.00     0.014 C 
ENDBRANCH   8  10
ENDBRANCH   7   8
BRANCH   7  12
ATOM     12  C   UNL     1      -3.056   0.052  -1.099  1.00  0.00     0.044 A 
ATOM     13  C   UNL     1      -3.428   0.358  -2.413  1.00  0.00     0.026 A 
ATOM     14  C   UNL     1      -3.602  -1.069  -0.468  1.00  0.00     0.026 A 
ATOM     15  C   UNL     1      -4.341  -0.453  -3.090  1.00  0.00     0.002 A 
ATOM     16  C   UNL     1      -4.515  -1.879  -1.147  1.00  0.00     0.002 A 
ATOM     17  C   UNL     1      -4.883  -1.570  -2.456  1.00  0.00     0.000 A 
ENDBRANCH   7  12
ENDBRANCH   1   7
BRANCH   1  18
ATOM     18  C   UNL     1      -0.515   0.332   1.440  1.00  0.00     0.188 C 
BRANCH  18  19
ATOM     19  O   UNL     1      -1.536  -0.446   2.086  1.00  0.00    -0.382 OA
ATOM     20  C   UNL     1      -1.408  -0.399   3.500  1.00  0.00     0.195 C 
ENDBRANCH  18  19
ENDBRANCH   1  18
BRANCH   4  21
ATOM     21  C   UNL     1       3.335  -1.010  -0.539  1.00  0.00     0.090 C 
BRANCH  21  22
ATOM     22  C   UNL     1       4.351  -0.386   0.435  1.00  0.00     0.062 C 
BRANCH  22  23
ATOM     23  C   UNL     1       5.727  -0.955   0.234  1.00  0.00     0.006 A 
ATOM     24  C   UNL     1       6.304  -2.037   0.870  1.00  0.00     0.015 A 
ATOM     25  S   UNL     1       6.800  -0.245  -0.898  1.00  0.00    -0.149 S 
ATOM     26  C   UNL     1       7.632  -2.284   0.419  1.00  0.00     0.012 A 
ATOM     27  C   UNL     1       8.027  -1.382  -0.543  1.00  0.00     0.065 A 
ENDBRANCH  22  23
ENDBRANCH  21  22
ENDBRANCH   4  21
TORSDOF 9
