REMARK SMILES NC(=O)[C@@H]1CCCN1C(=O)[C@H](Cc1c[nH]cn1)NC(=O)[C@@H]1CCC(=O)N1
REMARK SMILES IDX 9 1 10 2 8 3 4 4 5 5 6 6 7 7 2 8 1 9 3 12 11 13 12 14 13 15
REMARK SMILES IDX 14 16 17 17 15 18 16 19 18 21 19 22 20 24 21 25 22 26 26 27
REMARK SMILES IDX 23 28 24 29 25 31
REMARK H PARENT 1 10 1 11 15 20 18 23 26 30
REMARK Flexibility Score: inf
ROOT
ATOM      1  C   UNL     1      -0.455  -0.011  -0.695  1.00  0.00     0.246 C 
ATOM      2  O   UNL     1       0.372  -0.253  -1.584  1.00  0.00    -0.272 OA
ENDROOT
BRANCH   1   3
ATOM      3  N   UNL     1      -1.803  -0.180  -0.908  1.00  0.00    -0.329 N 
ATOM      4  C   UNL     1      -2.302  -0.604  -2.211  1.00  0.00     0.174 C 
ATOM      5  C   UNL     1      -3.797  -0.865  -1.995  1.00  0.00     0.037 C 
ATOM      6  C   UNL     1      -3.925  -1.058  -0.489  1.00  0.00     0.024 C 
ATOM      7  C   UNL     1      -2.873  -0.119   0.076  1.00  0.00     0.120 C 
BRANCH   4   8
ATOM      8  C   UNL     1      -2.120   0.494  -3.275  1.00  0.00     0.240 C 
ATOM      9  N   UNL     1      -2.207   0.064  -4.573  1.00  0.00    -0.368 N 
ATOM     10  H   UNL     1      -1.955  -0.888  -4.805  1.00  0.00     0.159 HD
ATOM     11  H   UNL     1      -1.984   0.768  -5.266  1.00  0.00     0.159 HD
ATOM     12  O   UNL     1      -1.980   1.689  -3.030  1.00  0.00    -0.273 OA
ENDBRANCH   4   8
ENDBRANCH   1   3
BRANCH   1  13
ATOM     13  C   UNL     1      -0.001   0.553   0.667  1.00  0.00     0.177 C 
BRANCH  13  14
ATOM     14  C   UNL     1      -0.339   2.047   0.736  1.00  0.00     0.093 C 
BRANCH  14  15
ATOM     15  C   UNL     1      -0.666   2.467   2.127  1.00  0.00     0.061 A 
ATOM     16  C   UNL     1       0.112   3.131   3.049  1.00  0.00     0.107 A 
ATOM     17  N   UNL     1      -1.904   2.186   2.660  1.00  0.00    -0.242 NA
ATOM     18  N   UNL     1      -0.672   3.247   4.163  1.00  0.00    -0.351 N 
ATOM     19  C   UNL     1      -1.875   2.665   3.882  1.00  0.00     0.196 A 
ATOM     20  H   UNL     1      -0.415   3.680   5.039  1.00  0.00     0.167 HD
ENDBRANCH  14  15
ENDBRANCH  13  14
BRANCH  13  21
ATOM     21  N   UNL     1       1.452   0.327   0.760  1.00  0.00    -0.342 N 
ATOM     22  C   UNL     1       1.936  -0.823   1.356  1.00  0.00     0.243 C 
ATOM     23  H   UNL     1       1.962   0.653  -0.054  1.00  0.00     0.164 HD
ATOM     24  O   UNL     1       1.246  -1.560   2.056  1.00  0.00    -0.273 OA
BRANCH  22  25
ATOM     25  C   UNL     1       3.439  -1.062   1.136  1.00  0.00     0.171 C 
ATOM     26  C   UNL     1       3.839  -1.165  -0.329  1.00  0.00     0.045 C 
ATOM     27  N   UNL     1       3.855  -2.331   1.677  1.00  0.00    -0.344 N 
ATOM     28  C   UNL     1       5.020  -2.132  -0.329  1.00  0.00     0.102 C 
ATOM     29  C   UNL     1       4.724  -3.010   0.857  1.00  0.00     0.220 C 
ATOM     30  H   UNL     1       3.435  -2.763   2.493  1.00  0.00     0.164 HD
ATOM     31  O   UNL     1       5.195  -4.111   1.077  1.00  0.00    -0.275 OA
ENDBRANCH  22  25
ENDBRANCH  13  21
ENDBRANCH   1  13
TORSDOF 7
