REMARK SMILES N#Cc1ccccc1-c1cc(-c2ccccn2)cn(-c2ccccc2)c1=O
REMARK SMILES IDX 3 1 4 2 5 3 6 4 7 5 8 6 2 7 1 8 9 9 10 10 26 11 11 12 19 13
REMARK SMILES IDX 27 14 18 15 12 16 13 17 17 18 14 19 16 20 15 21 20 22 21 23
REMARK SMILES IDX 25 24 22 25 24 26 23 27
REMARK H PARENT
REMARK Flexibility Score: inf
ROOT
ATOM      1  C   UNL     1      -3.618  -0.355  -1.080  1.00  0.00     0.060 A 
ATOM      2  C   UNL     1      -5.017  -0.398  -0.996  1.00  0.00     0.020 A 
ATOM      3  C   UNL     1      -5.662  -0.135   0.213  1.00  0.00     0.001 A 
ATOM      4  C   UNL     1      -4.913   0.176   1.346  1.00  0.00     0.001 A 
ATOM      5  C   UNL     1      -3.520   0.221   1.274  1.00  0.00     0.010 A 
ATOM      6  C   UNL     1      -2.858  -0.046   0.064  1.00  0.00     0.005 A 
ENDROOT
BRANCH   1   7
ATOM      7  C   UNL     1      -2.995  -0.604  -2.350  1.00  0.00     0.100 C 
ATOM      8  N   UNL     1      -2.507  -0.774  -3.390  1.00  0.00    -0.192 NA
ENDBRANCH   1   7
BRANCH   6   9
ATOM      9  C   UNL     1      -1.385   0.008   0.036  1.00  0.00     0.050 C 
ATOM     10  C   UNL     1      -0.769   1.195  -0.055  1.00  0.00     0.026 C 
ATOM     11  C   UNL     1      -0.572  -1.259   0.082  1.00  0.00     0.263 C 
ATOM     12  C   UNL     1       0.674   1.305  -0.103  1.00  0.00     0.018 C 
ATOM     13  N   UNL     1       0.835  -1.103   0.073  1.00  0.00    -0.283 N 
ATOM     14  O   UNL     1      -1.185  -2.327   0.097  1.00  0.00    -0.268 OA
ATOM     15  C   UNL     1       1.397   0.174  -0.020  1.00  0.00     0.105 C 
BRANCH  12  16
ATOM     16  C   UNL     1       1.358   2.619  -0.173  1.00  0.00     0.072 A 
ATOM     17  C   UNL     1       2.439   2.849  -1.022  1.00  0.00     0.029 A 
ATOM     18  N   UNL     1       0.835   3.592   0.614  1.00  0.00    -0.256 NA
ATOM     19  C   UNL     1       3.018   4.116  -1.048  1.00  0.00     0.004 A 
ATOM     20  C   UNL     1       1.419   4.810   0.570  1.00  0.00     0.111 A 
ATOM     21  C   UNL     1       2.502   5.117  -0.235  1.00  0.00     0.020 A 
ENDBRANCH  12  16
BRANCH  13  22
ATOM     22  C   UNL     1       1.687  -2.274   0.146  1.00  0.00     0.049 A 
ATOM     23  C   UNL     1       1.294  -3.435   0.828  1.00  0.00     0.027 A 
ATOM     24  C   UNL     1       2.961  -2.279  -0.454  1.00  0.00     0.027 A 
ATOM     25  C   UNL     1       2.133  -4.553   0.909  1.00  0.00     0.002 A 
ATOM     26  C   UNL     1       3.800  -3.396  -0.376  1.00  0.00     0.002 A 
ATOM     27  C   UNL     1       3.386  -4.534   0.308  1.00  0.00     0.000 A 
ENDBRANCH  13  22
ENDBRANCH   6   9
TORSDOF 4
