REMARK SMILES OC1(c2ccc(Cl)cc2)c2ccccc2C2=NCCN21
REMARK SMILES IDX 2 1 10 2 11 3 12 4 13 5 14 6 15 7 16 8 17 9 18 10 19 11
REMARK SMILES IDX 20 12 1 13 3 15 4 16 9 17 5 18 8 19 6 20 7 21
REMARK H PARENT 1 14
REMARK Flexibility Score: inf
ROOT
ATOM      1  C   UNL     1       0.078  -0.063  -0.729  1.00  0.00     0.193 C 
ATOM      2  C   UNL     1      -0.575   1.206  -0.184  1.00  0.00     0.020 A 
ATOM      3  C   UNL     1      -0.093   2.506  -0.148  1.00  0.00     0.010 A 
ATOM      4  C   UNL     1      -0.926   3.504   0.375  1.00  0.00     0.001 A 
ATOM      5  C   UNL     1      -2.223   3.203   0.842  1.00  0.00     0.001 A 
ATOM      6  C   UNL     1      -2.715   1.898   0.798  1.00  0.00     0.012 A 
ATOM      7  C   UNL     1      -1.870   0.934   0.294  1.00  0.00     0.025 A 
ATOM      8  C   UNL     1      -2.066  -0.481   0.072  1.00  0.00     0.134 C 
ATOM      9  N   UNL     1      -3.145  -1.202   0.105  1.00  0.00    -0.266 NA
ATOM     10  C   UNL     1      -2.621  -2.539  -0.373  1.00  0.00     0.166 C 
ATOM     11  C   UNL     1      -1.214  -2.289  -0.981  1.00  0.00     0.145 C 
ATOM     12  N   UNL     1      -0.895  -1.056  -0.330  1.00  0.00    -0.319 N 
ENDROOT
BRANCH   1  13
ATOM     13  O   UNL     1       0.113   0.013  -2.143  1.00  0.00    -0.363 OA
ATOM     14  H   UNL     1      -0.769   0.329  -2.397  1.00  0.00     0.214 HD
ENDBRANCH   1  13
BRANCH   1  15
ATOM     15  C   UNL     1       1.448  -0.363  -0.137  1.00  0.00     0.009 A 
ATOM     16  C   UNL     1       1.588  -0.693   1.227  1.00  0.00     0.010 A 
ATOM     17  C   UNL     1       2.614  -0.296  -0.921  1.00  0.00     0.010 A 
ATOM     18  C   UNL     1       2.845  -0.952   1.782  1.00  0.00     0.021 A 
ATOM     19  C   UNL     1       3.872  -0.555  -0.367  1.00  0.00     0.021 A 
ATOM     20  C   UNL     1       3.981  -0.882   0.981  1.00  0.00     0.041 A 
ATOM     21  Cl  UNL     1       5.529  -1.200   1.662  1.00  0.00    -0.084 Cl
ENDBRANCH   1  15
TORSDOF 2
