REMARK SMILES CC1(C)S[C@@H]2[C@H](NC(=O)C(C(=O)Oc3ccc4c(c3)CCC4)c3ccccc3)C(=O)N2[C@H]1C(=O)O
REMARK SMILES IDX 7 1 8 2 9 3 6 5 1 6 2 7 3 8 4 9 32 10 5 11 31 12 29 13 30 14
REMARK SMILES IDX 33 15 34 16 35 17 10 19 11 20 12 21 13 22 14 23 15 24 19 25
REMARK SMILES IDX 16 26 18 27 17 28 20 29 22 30 21 31 23 32 24 33 28 34 25 35
REMARK SMILES IDX 27 36 26 37
REMARK H PARENT 7 4 35 18
REMARK Flexibility Score: inf
ROOT
ATOM      1  N   UNL     1       1.559   0.199   1.023  1.00  0.00    -0.341 N 
ATOM      2  C   UNL     1       0.523  -0.567   0.534  1.00  0.00     0.239 C 
ATOM      3  O   UNL     1       0.534  -1.792   0.674  1.00  0.00    -0.274 OA
ATOM      4  H   UNL     1       1.560   1.205   0.879  1.00  0.00     0.164 HD
ENDROOT
BRANCH   1   5
ATOM      5  C   UNL     1       2.717  -0.435   1.708  1.00  0.00     0.205 C 
ATOM      6  C   UNL     1       6.374  -1.798  -0.976  1.00  0.00     0.026 C 
ATOM      7  C   UNL     1       5.636  -0.456  -0.865  1.00  0.00     0.044 C 
ATOM      8  C   UNL     1       6.026   0.461  -2.027  1.00  0.00     0.026 C 
ATOM      9  S   UNL     1       3.811  -0.791  -0.969  1.00  0.00    -0.125 SA
ATOM     10  C   UNL     1       5.790   0.242   0.503  1.00  0.00     0.211 C 
ATOM     11  C   UNL     1       3.741  -1.189   0.825  1.00  0.00     0.176 C 
ATOM     12  N   UNL     1       4.797  -0.339   1.409  1.00  0.00    -0.311 N 
ATOM     13  C   UNL     1       3.909   0.492   2.036  1.00  0.00     0.250 C 
ATOM     14  O   UNL     1       4.055   1.595   2.511  1.00  0.00    -0.272 OA
BRANCH  10  15
ATOM     15  C   UNL     1       7.213   0.180   1.051  1.00  0.00     0.327 C 
ATOM     16  O   UNL     1       8.205   0.624   0.489  1.00  0.00    -0.250 OA
BRANCH  15  17
ATOM     17  O   UNL     1       7.339  -0.446   2.238  1.00  0.00    -0.480 OA
ATOM     18  H   UNL     1       8.291  -0.374   2.460  1.00  0.00     0.296 HD
ENDBRANCH  15  17
ENDBRANCH  10  15
ENDBRANCH   1   5
BRANCH   2  19
ATOM     19  C   UNL     1      -0.582   0.133  -0.247  1.00  0.00     0.218 C 
BRANCH  19  20
ATOM     20  C   UNL     1      -1.944  -0.372   0.193  1.00  0.00     0.328 C 
ATOM     21  O   UNL     1      -2.317  -0.456   1.358  1.00  0.00    -0.250 OA
BRANCH  20  22
ATOM     22  O   UNL     1      -2.704  -0.661  -0.939  1.00  0.00    -0.426 OA
BRANCH  22  23
ATOM     23  C   UNL     1      -3.998  -1.111  -0.661  1.00  0.00     0.131 A 
ATOM     24  C   UNL     1      -4.277  -2.472  -0.861  1.00  0.00     0.047 A 
ATOM     25  C   UNL     1      -4.984  -0.202  -0.271  1.00  0.00     0.051 A 
ATOM     26  C   UNL     1      -5.567  -2.956  -0.641  1.00  0.00     0.008 A 
ATOM     27  C   UNL     1      -6.260  -0.697  -0.065  1.00  0.00    -0.041 A 
ATOM     28  C   UNL     1      -6.548  -2.057  -0.248  1.00  0.00    -0.045 A 
ATOM     29  C   UNL     1      -7.471   0.043   0.408  1.00  0.00     0.036 C 
ATOM     30  C   UNL     1      -7.979  -2.346   0.084  1.00  0.00     0.036 C 
ATOM     31  C   UNL     1      -8.589  -0.938   0.027  1.00  0.00     0.010 C 
ENDBRANCH  22  23
ENDBRANCH  20  22
ENDBRANCH  19  20
BRANCH  19  32
ATOM     32  C   UNL     1      -0.520   1.656  -0.258  1.00  0.00    -0.024 A 
ATOM     33  C   UNL     1      -0.027   2.325  -1.390  1.00  0.00     0.005 A 
ATOM     34  C   UNL     1      -0.908   2.416   0.858  1.00  0.00     0.005 A 
ATOM     35  C   UNL     1       0.067   3.717  -1.408  1.00  0.00     0.000 A 
ATOM     36  C   UNL     1      -0.811   3.808   0.836  1.00  0.00     0.000 A 
ATOM     37  C   UNL     1      -0.325   4.458  -0.296  1.00  0.00     0.000 A 
ENDBRANCH  19  32
ENDBRANCH   2  19
TORSDOF 8
