REMARK SMILES C[C@H](CCc1ccccc1)NC[C@H](O)c1ccc(O)c(C(N)=O)c1
REMARK SMILES IDX 11 1 2 3 1 4 3 5 4 6 5 7 6 8 10 9 7 10 9 11 8 12 12 13 13 14
REMARK SMILES IDX 14 15 15 17 16 18 24 19 17 20 20 21 18 22 21 23 22 24 23 25
REMARK SMILES IDX 19 28
REMARK H PARENT 11 2 14 16 22 26 22 27 19 29
REMARK Flexibility Score: inf
ROOT
ATOM      1  N   UNL     1       0.276   0.833   1.080  1.00  0.00    -0.311 NA
ATOM      2  H   UNL     1       0.607   0.822   2.047  1.00  0.00     0.123 HD
ENDROOT
BRANCH   1   3
ATOM      3  C   UNL     1       1.383   0.413   0.196  1.00  0.00     0.051 C 
ATOM      4  C   UNL     1       2.150  -0.753   0.826  1.00  0.00     0.024 C 
BRANCH   3   5
ATOM      5  C   UNL     1       2.265   1.663  -0.018  1.00  0.00     0.023 C 
BRANCH   5   6
ATOM      6  C   UNL     1       3.310   1.543  -1.138  1.00  0.00     0.037 C 
BRANCH   6   7
ATOM      7  C   UNL     1       4.563   0.772  -0.803  1.00  0.00    -0.048 A 
ATOM      8  C   UNL     1       5.359   1.125   0.295  1.00  0.00     0.004 A 
ATOM      9  C   UNL     1       4.979  -0.288  -1.623  1.00  0.00     0.004 A 
ATOM     10  C   UNL     1       6.526   0.414   0.585  1.00  0.00     0.000 A 
ATOM     11  C   UNL     1       6.146  -0.997  -1.332  1.00  0.00     0.000 A 
ATOM     12  C   UNL     1       6.917  -0.648  -0.226  1.00  0.00     0.000 A 
ENDBRANCH   6   7
ENDBRANCH   5   6
ENDBRANCH   3   5
ENDBRANCH   1   3
BRANCH   1  13
ATOM     13  C   UNL     1      -0.927  -0.019   0.981  1.00  0.00     0.117 C 
BRANCH  13  14
ATOM     14  C   UNL     1      -1.752   0.280  -0.297  1.00  0.00     0.158 C 
BRANCH  14  15
ATOM     15  O   UNL     1      -1.916   1.699  -0.403  1.00  0.00    -0.387 OA
ATOM     16  H   UNL     1      -1.079   2.061  -0.044  1.00  0.00     0.211 HD
ENDBRANCH  14  15
BRANCH  14  17
ATOM     17  C   UNL     1      -3.094  -0.424  -0.281  1.00  0.00    -0.017 A 
ATOM     18  C   UNL     1      -3.158  -1.805  -0.529  1.00  0.00     0.010 A 
ATOM     19  C   UNL     1      -4.290   0.264  -0.018  1.00  0.00     0.024 A 
ATOM     20  C   UNL     1      -4.380  -2.482  -0.508  1.00  0.00     0.047 A 
ATOM     21  C   UNL     1      -5.522  -0.410   0.005  1.00  0.00     0.081 A 
ATOM     22  C   UNL     1      -5.559  -1.786  -0.240  1.00  0.00     0.128 A 
BRANCH  21  23
ATOM     23  C   UNL     1      -6.765   0.363   0.251  1.00  0.00     0.252 C 
ATOM     24  N   UNL     1      -6.710   1.277   1.270  1.00  0.00    -0.365 N 
ATOM     25  O   UNL     1      -7.785   0.219  -0.409  1.00  0.00    -0.269 OA
ATOM     26  H   UNL     1      -7.581   1.732   1.513  1.00  0.00     0.159 HD
ATOM     27  H   UNL     1      -5.958   1.285   1.944  1.00  0.00     0.159 HD
ENDBRANCH  21  23
BRANCH  22  28
ATOM     28  O   UNL     1      -6.736  -2.474  -0.174  1.00  0.00    -0.507 OA
ATOM     29  H   UNL     1      -6.640  -3.325  -0.629  1.00  0.00     0.293 HD
ENDBRANCH  22  28
ENDBRANCH  14  17
ENDBRANCH  13  14
ENDBRANCH   1  13
TORSDOF 10
