REMARK SMILES CNC(=O)c1cc(COc2nnc(Nc3ccc(Cl)cc3)c3ccoc23)ccn1
REMARK SMILES IDX 9 1 8 2 7 3 5 4 6 5 29 6 28 7 27 8 3 9 1 10 2 11 4 13 10 14
REMARK SMILES IDX 26 15 11 16 25 17 22 18 12 19 24 20 23 21 13 22 14 23 15 25
REMARK SMILES IDX 16 26 21 27 17 28 20 29 18 30 19 31
REMARK H PARENT 2 12 14 24
REMARK Flexibility Score: inf
ROOT
ATOM      1  O   UNL     1       0.926  -0.064  -1.068  1.00  0.00    -0.469 OA
ENDROOT
BRANCH   1   2
ATOM      2  C   UNL     1       1.506   0.591   0.060  1.00  0.00     0.267 C 
BRANCH   2   3
ATOM      3  C   UNL     1       2.991   0.731  -0.174  1.00  0.00    -0.007 A 
ATOM      4  C   UNL     1       5.263   0.556   0.568  1.00  0.00     0.128 A 
ATOM      5  C   UNL     1       3.907   0.385   0.823  1.00  0.00     0.041 A 
ATOM      6  N   UNL     1       5.763   1.053  -0.600  1.00  0.00    -0.251 NA
ATOM      7  C   UNL     1       4.856   1.386  -1.541  1.00  0.00     0.112 A 
ATOM      8  C   UNL     1       3.485   1.250  -1.377  1.00  0.00     0.027 A 
BRANCH   4   9
ATOM      9  C   UNL     1       6.271   0.193   1.618  1.00  0.00     0.269 C 
ATOM     10  C   UNL     1       8.684   0.208   2.137  1.00  0.00     0.143 C 
ATOM     11  N   UNL     1       7.581   0.374   1.230  1.00  0.00    -0.354 N 
ATOM     12  H   UNL     1       7.717   0.818   0.325  1.00  0.00     0.163 HD
ATOM     13  O   UNL     1       5.929  -0.217   2.722  1.00  0.00    -0.268 OA
ENDBRANCH   4   9
ENDBRANCH   2   3
ENDBRANCH   1   2
BRANCH   1  14
ATOM     14  C   UNL     1      -0.437  -0.223  -0.946  1.00  0.00     0.278 A 
ATOM     15  C   UNL     1      -1.187  -0.872  -1.913  1.00  0.00     0.201 A 
ATOM     16  N   UNL     1      -1.118   0.251   0.116  1.00  0.00    -0.106 NA
ATOM     17  O   UNL     1      -0.705  -1.421  -3.068  1.00  0.00    -0.458 OA
ATOM     18  C   UNL     1      -2.564  -1.052  -1.832  1.00  0.00     0.071 A 
ATOM     19  N   UNL     1      -2.503   0.085   0.222  1.00  0.00    -0.128 NA
ATOM     20  C   UNL     1      -1.760  -1.957  -3.729  1.00  0.00     0.197 A 
ATOM     21  C   UNL     1      -2.922  -1.761  -3.021  1.00  0.00     0.055 A 
ATOM     22  C   UNL     1      -3.264  -0.552  -0.710  1.00  0.00     0.164 A 
BRANCH  22  23
ATOM     23  N   UNL     1      -4.653  -0.710  -0.587  1.00  0.00    -0.338 N 
ATOM     24  H   UNL     1      -5.068  -1.205  -1.363  1.00  0.00     0.168 HD
BRANCH  23  25
ATOM     25  C   UNL     1      -5.567  -0.324   0.408  1.00  0.00     0.040 A 
ATOM     26  C   UNL     1      -6.927  -0.627   0.218  1.00  0.00     0.027 A 
ATOM     27  C   UNL     1      -5.212   0.351   1.581  1.00  0.00     0.027 A 
ATOM     28  C   UNL     1      -7.895  -0.271   1.164  1.00  0.00     0.022 A 
ATOM     29  C   UNL     1      -6.175   0.711   2.533  1.00  0.00     0.022 A 
ATOM     30  C   UNL     1      -7.513   0.398   2.320  1.00  0.00     0.041 A 
ATOM     31  Cl  UNL     1      -8.696   0.839   3.488  1.00  0.00    -0.084 Cl
ENDBRANCH  23  25
ENDBRANCH  22  23
ENDBRANCH   1  14
TORSDOF 6
