REMARK SMILES NC(=O)N1c2ccccc2C[C@H](O)c2ccccc21
REMARK SMILES IDX 14 1 15 2 16 3 17 4 18 5 19 6 4 7 2 8 1 9 3 12 5 13 6 14
REMARK SMILES IDX 10 15 7 16 9 17 8 18 11 19 12 21 13 23
REMARK H PARENT 1 10 1 11 13 24
REMARK Flexibility Score: 80.00
ROOT
ATOM      1  C   UNL     1      -1.579   0.185  -0.507  1.00  0.00     0.005 A 
ATOM      2  C   UNL     1      -2.565   0.538  -1.464  1.00  0.00     0.008 A 
ATOM      3  C   UNL     1      -2.502   1.723  -2.190  1.00  0.00     0.001 A 
ATOM      4  C   UNL     1      -1.445   2.590  -1.979  1.00  0.00     0.002 A 
ATOM      5  C   UNL     1      -0.463   2.267  -1.041  1.00  0.00     0.027 A 
ATOM      6  C   UNL     1      -0.507   1.076  -0.278  1.00  0.00     0.056 A 
ENDROOT
BRANCH   6   7
ATOM      7  N   UNL     1       0.578   0.827   0.642  1.00  0.00    -0.263 N 
BRANCH   7   8
ATOM      8  C   UNL     1       1.250   1.842   1.340  1.00  0.00     0.323 C 
ATOM      9  N   UNL     1       0.518   2.970   1.592  1.00  0.00    -0.351 N 
ATOM     10  H   UNL     1       0.966   3.589   2.255  1.00  0.00     0.161 HD
ATOM     11  H   UNL     1      -0.476   2.842   1.725  1.00  0.00     0.161 HD
ATOM     12  O   UNL     1       2.382   1.785   1.814  1.00  0.00    -0.248 OA
ENDBRANCH   7   8
BRANCH   7  13
ATOM     13  C   UNL     1       1.228  -0.436   0.470  1.00  0.00     0.054 A 
ATOM     14  C   UNL     1       2.560  -0.506   0.036  1.00  0.00     0.027 A 
ATOM     15  C   UNL     1       0.547  -1.624   0.772  1.00  0.00    -0.021 A 
ATOM     16  C   UNL     1       3.192  -1.740  -0.130  1.00  0.00     0.002 A 
ATOM     17  C   UNL     1       1.187  -2.861   0.602  1.00  0.00     0.006 A 
ATOM     18  C   UNL     1       2.504  -2.917   0.148  1.00  0.00     0.000 A 
BRANCH  15  19
ATOM     19  C   UNL     1      -0.855  -1.555   1.309  1.00  0.00     0.074 CG0
ATOM     20  G   UNL     1      -1.837  -1.117   0.227  1.00  0.00     0.000 G0
ENDBRANCH  15  19
ENDBRANCH   7  13
ENDBRANCH   6   7
BRANCH   1  21
ATOM     21  C   UNL     1      -1.837  -1.117   0.227  1.00  0.00     0.151 CG0
ATOM     22  G   UNL     1      -0.855  -1.555   1.309  1.00  0.00     0.000 G0
BRANCH  21  23
ATOM     23  O   UNL     1      -1.967  -2.179  -0.731  1.00  0.00    -0.388 OA
ATOM     24  H   UNL     1      -1.194  -2.110  -1.321  1.00  0.00     0.211 HD
ENDBRANCH  21  23
ENDBRANCH   1  21
TORSDOF 2
