REMARK SMILES Cc1ccc(/C(=C\CN2CCCC2)c2ccccn2)cc1
REMARK SMILES IDX 6 1 7 2 5 3 1 4 2 5 3 6 21 7 4 8 20 9 14 10 15 11 19 12
REMARK SMILES IDX 16 13 18 14 17 15 8 16 9 17 10 18 13 19 11 20 12 21
REMARK H PARENT
REMARK Flexibility Score: inf
ROOT
ATOM      1  C   UNL     1      -0.485   0.978   0.215  1.00  0.00     0.005 C 
ATOM      2  C   UNL     1       0.737   0.864   0.789  1.00  0.00    -0.001 C 
ENDROOT
BRANCH   1   3
ATOM      3  C   UNL     1      -1.347  -0.225   0.179  1.00  0.00    -0.016 A 
ATOM      4  C   UNL     1      -3.893  -3.702   0.051  1.00  0.00     0.044 C 
ATOM      5  C   UNL     1      -2.991  -2.505   0.106  1.00  0.00    -0.051 A 
ATOM      6  C   UNL     1      -2.133  -2.215  -0.962  1.00  0.00     0.004 A 
ATOM      7  C   UNL     1      -3.036  -1.634   1.201  1.00  0.00     0.004 A 
ATOM      8  C   UNL     1      -1.313  -1.085  -0.925  1.00  0.00     0.009 A 
ATOM      9  C   UNL     1      -2.216  -0.504   1.241  1.00  0.00     0.009 A 
ENDBRANCH   1   3
BRANCH   1  10
ATOM     10  C   UNL     1      -0.905   2.300  -0.357  1.00  0.00     0.070 A 
ATOM     11  C   UNL     1      -2.168   2.472  -0.926  1.00  0.00     0.029 A 
ATOM     12  N   UNL     1      -0.011   3.321  -0.302  1.00  0.00    -0.256 NA
ATOM     13  C   UNL     1      -2.521   3.716  -1.449  1.00  0.00     0.004 A 
ATOM     14  C   UNL     1      -0.379   4.516  -0.815  1.00  0.00     0.111 A 
ATOM     15  C   UNL     1      -1.610   4.761  -1.394  1.00  0.00     0.020 A 
ENDBRANCH   1  10
BRANCH   2  16
ATOM     16  C   UNL     1       1.367  -0.343   1.435  1.00  0.00     0.112 C 
BRANCH  16  17
ATOM     17  N   UNL     1       2.609  -0.824   0.835  1.00  0.00    -0.300 NA
ATOM     18  C   UNL     1       2.490  -1.270  -0.548  1.00  0.00     0.085 C 
ATOM     19  C   UNL     1       3.734   0.101   0.867  1.00  0.00     0.085 C 
ATOM     20  C   UNL     1       3.942  -1.470  -0.963  1.00  0.00     0.017 C 
ATOM     21  C   UNL     1       4.760  -0.610  -0.003  1.00  0.00     0.017 C 
ENDBRANCH  16  17
ENDBRANCH   2  16
TORSDOF 4
