REMARK SMILES NC(=O)N1c2ccccc2CC(=O)c2ccccc21
REMARK SMILES IDX 4 1 2 2 1 3 3 6 5 7 6 8 10 9 7 10 9 11 8 12 11 13 19 15
REMARK SMILES IDX 14 16 18 17 15 18 17 19 16 20 12 21 13 22
REMARK H PARENT 1 4 1 5
REMARK Flexibility Score: 90.00
ROOT
ATOM      1  N   UNL     1      -0.080   1.020  -0.286  1.00  0.00    -0.262 N 
ENDROOT
BRANCH   1   2
ATOM      2  C   UNL     1      -0.310   2.372  -0.578  1.00  0.00     0.323 C 
ATOM      3  N   UNL     1      -1.616   2.732  -0.766  1.00  0.00    -0.351 N 
ATOM      4  H   UNL     1      -2.233   2.042  -1.172  1.00  0.00     0.161 HD
ATOM      5  H   UNL     1      -1.719   3.668  -1.137  1.00  0.00     0.161 HD
ATOM      6  O   UNL     1       0.539   3.243  -0.749  1.00  0.00    -0.248 OA
ENDBRANCH   1   2
BRANCH   1   7
ATOM      7  C   UNL     1      -1.131   0.149   0.136  1.00  0.00     0.054 A 
ATOM      8  C   UNL     1      -1.993   0.527   1.177  1.00  0.00     0.027 A 
ATOM      9  C   UNL     1      -1.325  -1.081  -0.502  1.00  0.00    -0.016 A 
ATOM     10  C   UNL     1      -3.025  -0.317   1.587  1.00  0.00     0.002 A 
ATOM     11  C   UNL     1      -2.362  -1.927  -0.082  1.00  0.00     0.006 A 
ATOM     12  C   UNL     1      -3.208  -1.545   0.958  1.00  0.00     0.000 A 
BRANCH   9  13
ATOM     13  C   UNL     1      -0.424  -1.471  -1.631  1.00  0.00     0.118 CG0
ATOM     14  G   UNL     1       0.960  -1.784  -1.140  1.00  0.00     0.000 G0
ENDBRANCH   9  13
ENDBRANCH   1   7
BRANCH   1  15
ATOM     15  C   UNL     1       1.254   0.527  -0.015  1.00  0.00     0.062 A 
ATOM     16  C   UNL     1       1.715  -0.772  -0.335  1.00  0.00     0.042 A 
ATOM     17  C   UNL     1       2.155   1.382   0.660  1.00  0.00     0.027 A 
ATOM     18  C   UNL     1       3.021  -1.166   0.037  1.00  0.00     0.014 A 
ATOM     19  C   UNL     1       3.445   0.979   1.015  1.00  0.00     0.002 A 
ATOM     20  C   UNL     1       3.878  -0.299   0.708  1.00  0.00     0.001 A 
BRANCH  16  21
ATOM     21  C   UNL     1       0.960  -1.784  -1.140  1.00  0.00     0.169 CG0
ATOM     22  O   UNL     1       1.489  -2.859  -1.431  1.00  0.00    -0.294 OA
ATOM     23  G   UNL     1      -0.424  -1.471  -1.631  1.00  0.00     0.000 G0
ENDBRANCH  16  21
ENDBRANCH   1  15
TORSDOF 1
