REMARK SMILES C[C@]12Cc3c[nH]nc3C[C@@H]1CC[C@@H]1[C@@H]2CC[C@@]2(C)[C@H]1CC[C@]2(C)O
REMARK SMILES IDX 1 1 2 2 3 3 4 4 5 5 6 6 7 7 8 8 9 9 10 10 11 11 12 12 13 13
REMARK SMILES IDX 14 14 15 15 16 16 17 17 18 18 19 19 20 20 21 21 22 22 23 23
REMARK SMILES IDX 24 25
REMARK H PARENT 6 24 24 26
REMARK Flexibility Score: inf
ROOT
ATOM      1  C   UNL     1       1.916   0.743  -1.718  1.00  0.00     0.012 C 
ATOM      2  C   UNL     1       1.828   0.332  -0.224  1.00  0.00    -0.022 C 
ATOM      3  C   UNL     1       2.631   1.385   0.622  1.00  0.00     0.046 C 
ATOM      4  C   UNL     1       4.101   1.172   0.543  1.00  0.00    -0.006 A 
ATOM      5  C   UNL     1       5.156   1.989   0.874  1.00  0.00     0.109 A 
ATOM      6  N   UNL     1       6.286   1.267   0.608  1.00  0.00    -0.285 N 
ATOM      7  N   UNL     1       6.038   0.035   0.126  1.00  0.00    -0.180 NA
ATOM      8  C   UNL     1       4.705  -0.021   0.092  1.00  0.00     0.066 A 
ATOM      9  C   UNL     1       3.947  -1.200  -0.402  1.00  0.00     0.062 C 
ATOM     10  C   UNL     1       2.456  -1.098   0.011  1.00  0.00     0.001 C 
ATOM     11  C   UNL     1       1.646  -2.217  -0.655  1.00  0.00     0.005 C 
ATOM     12  C   UNL     1       0.193  -2.212  -0.194  1.00  0.00     0.004 C 
ATOM     13  C   UNL     1      -0.482  -0.852  -0.417  1.00  0.00    -0.004 C 
ATOM     14  C   UNL     1       0.332   0.292   0.265  1.00  0.00    -0.001 C 
ATOM     15  C   UNL     1      -0.399   1.659   0.186  1.00  0.00     0.005 C 
ATOM     16  C   UNL     1      -1.866   1.592   0.647  1.00  0.00     0.010 C 
ATOM     17  C   UNL     1      -2.649   0.493  -0.091  1.00  0.00    -0.001 C 
ATOM     18  C   UNL     1      -2.756   0.882  -1.594  1.00  0.00     0.015 C 
ATOM     19  C   UNL     1      -1.913  -0.845   0.142  1.00  0.00     0.001 C 
ATOM     20  C   UNL     1      -2.900  -1.890  -0.369  1.00  0.00     0.007 C 
ATOM     21  C   UNL     1      -4.288  -1.319  -0.022  1.00  0.00     0.036 C 
ATOM     22  C   UNL     1      -4.066   0.140   0.465  1.00  0.00     0.068 C 
ATOM     23  C   UNL     1      -4.206   0.216   1.991  1.00  0.00     0.042 C 
ATOM     24  H   UNL     1       7.253   1.548   0.730  1.00  0.00     0.189 HD
ENDROOT
BRANCH  22  25
ATOM     25  O   UNL     1      -5.078   1.003  -0.048  1.00  0.00    -0.390 OA
ATOM     26  H   UNL     1      -5.228   0.792  -0.984  1.00  0.00     0.211 HD
ENDBRANCH  22  25
TORSDOF 1
