REMARK SMILES Cc1c(O)c(=O)ccn1C
REMARK SMILES IDX 1 1 2 2 3 3 5 4 6 5 7 6 8 7 9 8 10 9 4 10
REMARK H PARENT 4 11
REMARK Flexibility Score: inf
ROOT
ATOM      1  C   UNL     1      -0.826  -1.803  -0.357  1.00  0.00     0.069 C 
ATOM      2  C   UNL     1       0.051  -0.593  -0.109  1.00  0.00     0.060 C 
ATOM      3  C   UNL     1       1.406  -0.683  -0.154  1.00  0.00     0.182 C 
ATOM      4  C   UNL     1       2.218   0.571   0.028  1.00  0.00     0.223 C 
ATOM      5  O   UNL     1       3.446   0.576   0.009  1.00  0.00    -0.286 OA
ATOM      6  C   UNL     1       1.488   1.835   0.244  1.00  0.00     0.074 C 
ATOM      7  C   UNL     1       0.156   1.788   0.289  1.00  0.00     0.089 C 
ATOM      8  N   UNL     1      -0.606   0.637   0.145  1.00  0.00    -0.351 N 
ATOM      9  C   UNL     1      -2.073   0.739   0.205  1.00  0.00     0.149 C 
ENDROOT
BRANCH   3  10
ATOM     10  O   UNL     1       2.117  -1.853  -0.353  1.00  0.00    -0.503 OA
ATOM     11  H   UNL     1       1.558  -2.612  -0.141  1.00  0.00     0.293 HD
ENDBRANCH   3  10
TORSDOF 1
