REMARK SMILES CN/C(=N\CCSCc1nc[nH]c1C)NC#N
REMARK SMILES IDX 6 1 5 2 4 3 1 4 2 5 3 6 15 8 16 10 17 11 7 12 8 13 9 14
REMARK SMILES IDX 10 15 13 16 11 17 12 18 14 19
REMARK H PARENT 2 7 15 9 12 20
REMARK Flexibility Score: inf
ROOT
ATOM      1  C   UNL     1      -1.164   1.190  -1.532  1.00  0.00     0.093 C 
ENDROOT
BRANCH   1   2
ATOM      2  C   UNL     1      -1.487   1.605  -0.093  1.00  0.00     0.157 C 
BRANCH   2   3
ATOM      3  N   UNL     1      -1.489   0.472   0.817  1.00  0.00    -0.252 NA
ATOM      4  C   UNL     1      -4.359   0.164  -0.388  1.00  0.00     0.143 C 
ATOM      5  N   UNL     1      -3.863   0.165   0.973  1.00  0.00    -0.359 N 
ATOM      6  C   UNL     1      -2.551  -0.072   1.258  1.00  0.00     0.204 C 
ATOM      7  H   UNL     1      -4.493  -0.345   1.577  1.00  0.00     0.163 HD
ATOM      8  N   UNL     1      -2.436  -1.086   2.220  1.00  0.00    -0.263 N 
ATOM      9  H   UNL     1      -3.242  -1.573   2.591  1.00  0.00     0.182 HD
BRANCH   8  10
ATOM     10  C   UNL     1      -1.195  -1.451   2.549  1.00  0.00     0.183 C 
ATOM     11  N   UNL     1      -0.160  -1.839   2.897  1.00  0.00    -0.172 NA
ENDBRANCH   8  10
ENDBRANCH   2   3
ENDBRANCH   1   2
BRANCH   1  12
ATOM     12  S   UNL     1       0.263   0.073  -1.768  1.00  0.00    -0.154 SA
BRANCH  12  13
ATOM     13  C   UNL     1       1.528   0.987  -0.823  1.00  0.00     0.127 C 
BRANCH  13  14
ATOM     14  C   UNL     1       2.873   0.359  -0.981  1.00  0.00     0.071 A 
ATOM     15  N   UNL     1       3.815   0.904  -1.831  1.00  0.00    -0.241 NA
ATOM     16  C   UNL     1       3.394  -0.755  -0.344  1.00  0.00     0.035 A 
ATOM     17  C   UNL     1       4.867   0.126  -1.736  1.00  0.00     0.197 A 
ATOM     18  N   UNL     1       4.660  -0.892  -0.851  1.00  0.00    -0.348 N 
ATOM     19  C   UNL     1       2.815  -1.674   0.663  1.00  0.00     0.066 C 
ATOM     20  H   UNL     1       5.326  -1.614  -0.613  1.00  0.00     0.167 HD
ENDBRANCH  13  14
ENDBRANCH  12  13
ENDBRANCH   1  12
TORSDOF 6
