REMARK SMILES CC(O)c1cc(C(=O)N[C@@H](C)Cn2ccc(-c3ccc(C#N)c(Cl)c3)n2)n[nH]1
REMARK SMILES IDX 10 1 11 2 9 3 7 4 8 5 6 7 4 8 5 9 28 10 27 11 2 13 1 14 3 15
REMARK SMILES IDX 12 17 13 18 14 19 26 20 15 21 16 22 17 23 18 24 25 25 19 26
REMARK SMILES IDX 23 27 20 28 24 29 21 30 22 31
REMARK H PARENT 9 6 28 12 3 16
REMARK Flexibility Score: inf
ROOT
ATOM      1  C   UNL     1       0.083   0.163   1.004  1.00  0.00     0.100 C 
ATOM      2  C   UNL     1       0.174  -0.678   2.281  1.00  0.00     0.033 C 
ENDROOT
BRANCH   1   3
ATOM      3  N   UNL     1       1.395   0.728   0.701  1.00  0.00    -0.346 N 
ATOM      4  C   UNL     1       2.385   0.023   0.048  1.00  0.00     0.272 C 
ATOM      5  O   UNL     1       2.220  -1.080  -0.462  1.00  0.00    -0.267 OA
ATOM      6  H   UNL     1       1.735   1.561   1.180  1.00  0.00     0.164 HD
BRANCH   4   7
ATOM      7  C   UNL     1       3.677   0.726   0.041  1.00  0.00     0.150 A 
ATOM      8  C   UNL     1       5.808   1.280  -0.310  1.00  0.00     0.064 A 
ATOM      9  C   UNL     1       4.880   0.298  -0.579  1.00  0.00     0.062 A 
ATOM     10  N   UNL     1       5.138   2.215   0.432  1.00  0.00    -0.279 N 
ATOM     11  N   UNL     1       3.850   1.908   0.668  1.00  0.00    -0.170 NA
ATOM     12  H   UNL     1       5.520   3.073   0.819  1.00  0.00     0.190 HD
BRANCH   8  13
ATOM     13  C   UNL     1       7.235   1.472  -0.671  1.00  0.00     0.159 C 
ATOM     14  C   UNL     1       7.904   0.236  -1.252  1.00  0.00     0.045 C 
BRANCH  13  15
ATOM     15  O   UNL     1       7.895   1.850   0.532  1.00  0.00    -0.387 OA
ATOM     16  H   UNL     1       7.945   1.054   1.091  1.00  0.00     0.211 HD
ENDBRANCH  13  15
ENDBRANCH   8  13
ENDBRANCH   4   7
ENDBRANCH   1   3
BRANCH   1  17
ATOM     17  C   UNL     1      -0.960   1.283   1.123  1.00  0.00     0.168 C 
BRANCH  17  18
ATOM     18  N   UNL     1      -2.313   0.802   1.315  1.00  0.00    -0.270 N 
ATOM     19  C   UNL     1      -3.077   0.938   2.434  1.00  0.00     0.109 A 
ATOM     20  N   UNL     1      -2.944   0.170   0.313  1.00  0.00    -0.173 NA
ATOM     21  C   UNL     1      -4.277   0.336   2.139  1.00  0.00     0.050 A 
ATOM     22  C   UNL     1      -4.158  -0.134   0.801  1.00  0.00     0.092 A 
BRANCH  22  23
ATOM     23  C   UNL     1      -5.149  -0.851  -0.012  1.00  0.00     0.004 A 
ATOM     24  C   UNL     1      -6.433  -1.126   0.478  1.00  0.00     0.012 A 
ATOM     25  C   UNL     1      -4.824  -1.277  -1.311  1.00  0.00     0.032 A 
ATOM     26  C   UNL     1      -7.367  -1.810  -0.310  1.00  0.00     0.022 A 
ATOM     27  C   UNL     1      -5.756  -1.960  -2.101  1.00  0.00     0.059 A 
ATOM     28  C   UNL     1      -7.034  -2.231  -1.604  1.00  0.00     0.071 A 
ATOM     29  Cl  UNL     1      -5.270  -2.446  -3.687  1.00  0.00    -0.083 Cl
BRANCH  28  30
ATOM     30  C   UNL     1      -8.020  -2.927  -2.378  1.00  0.00     0.101 C 
ATOM     31  N   UNL     1      -8.845  -3.487  -2.972  1.00  0.00    -0.192 NA
ENDBRANCH  28  30
ENDBRANCH  22  23
ENDBRANCH  17  18
ENDBRANCH   1  17
TORSDOF 8
