REMARK SMILES N#Cc1ccc([C@H]2CCc3cncn32)c(F)c1
REMARK SMILES IDX 3 1 4 2 5 3 6 4 15 5 16 6 17 7 2 8 1 9 7 10 8 11 14 12 9 13
REMARK SMILES IDX 10 14 13 15 11 16 12 17
REMARK H PARENT
REMARK Flexibility Score: inf
ROOT
ATOM      1  C   UNL     1       3.435  -0.486  -0.344  1.00  0.00     0.055 A 
ATOM      2  C   UNL     1       2.389  -1.230  -0.899  1.00  0.00     0.020 A 
ATOM      3  C   UNL     1       1.062  -0.821  -0.726  1.00  0.00     0.010 A 
ATOM      4  C   UNL     1       0.762   0.336   0.013  1.00  0.00     0.011 A 
ATOM      5  C   UNL     1       1.826   1.068   0.551  1.00  0.00     0.129 A 
ATOM      6  F   UNL     1       1.578   2.187   1.245  1.00  0.00    -0.207 F 
ATOM      7  C   UNL     1       3.150   0.670   0.383  1.00  0.00     0.059 A 
ENDROOT
BRANCH   1   8
ATOM      8  C   UNL     1       4.794  -0.905  -0.525  1.00  0.00     0.099 C 
ATOM      9  N   UNL     1       5.894  -1.241  -0.673  1.00  0.00    -0.192 NA
ENDBRANCH   1   8
BRANCH   4  10
ATOM     10  C   UNL     1      -0.648   0.827   0.216  1.00  0.00     0.122 C 
ATOM     11  C   UNL     1      -1.323   1.349  -1.083  1.00  0.00     0.037 C 
ATOM     12  N   UNL     1      -1.576  -0.227   0.617  1.00  0.00    -0.327 N 
ATOM     13  C   UNL     1      -2.817   0.935  -0.996  1.00  0.00     0.058 C 
ATOM     14  C   UNL     1      -2.769  -0.179  -0.038  1.00  0.00     0.038 A 
ATOM     15  C   UNL     1      -1.600  -1.226   1.515  1.00  0.00     0.200 A 
ATOM     16  C   UNL     1      -3.498  -1.214   0.473  1.00  0.00     0.134 A 
ATOM     17  N   UNL     1      -2.753  -1.866   1.441  1.00  0.00    -0.245 NA
ENDBRANCH   4  10
TORSDOF 2
