REMARK SMILES CN1CCN2c3ncccc3Cc3ccccc3C2C1
REMARK SMILES IDX 1 1 2 2 3 3 4 4 5 5 6 6 7 7 8 8 9 9 10 10 11 11 12 12 13 13
REMARK SMILES IDX 14 14 15 15 16 16 17 17 18 18 19 19 20 20
REMARK H PARENT
REMARK Flexibility Score: inf
ROOT
ATOM      1  C   UNL     1      -4.435  -0.801   0.042  1.00  0.00     0.105 C 
ATOM      2  N   UNL     1      -3.032  -0.930  -0.347  1.00  0.00    -0.302 NA
ATOM      3  C   UNL     1      -2.396  -2.049   0.373  1.00  0.00     0.105 C 
ATOM      4  C   UNL     1      -0.907  -2.210   0.010  1.00  0.00     0.134 C 
ATOM      5  N   UNL     1      -0.124  -0.960   0.216  1.00  0.00    -0.347 N 
ATOM      6  C   UNL     1       1.242  -1.247   0.136  1.00  0.00     0.132 A 
ATOM      7  N   UNL     1       1.647  -2.318   0.873  1.00  0.00    -0.239 NA
ATOM      8  C   UNL     1       2.945  -2.683   0.894  1.00  0.00     0.113 A 
ATOM      9  C   UNL     1       3.928  -2.034   0.189  1.00  0.00     0.021 A 
ATOM     10  C   UNL     1       3.544  -0.946  -0.573  1.00  0.00     0.009 A 
ATOM     11  C   UNL     1       2.195  -0.531  -0.607  1.00  0.00    -0.001 A 
ATOM     12  C   UNL     1       1.866   0.663  -1.463  1.00  0.00     0.075 C 
ATOM     13  C   UNL     1       1.238   1.764  -0.650  1.00  0.00    -0.038 A 
ATOM     14  C   UNL     1       1.936   2.961  -0.419  1.00  0.00     0.004 A 
ATOM     15  C   UNL     1       1.390   3.947   0.397  1.00  0.00     0.000 A 
ATOM     16  C   UNL     1       0.154   3.737   0.996  1.00  0.00     0.000 A 
ATOM     17  C   UNL     1      -0.545   2.548   0.771  1.00  0.00     0.006 A 
ATOM     18  C   UNL     1      -0.026   1.544  -0.066  1.00  0.00    -0.021 A 
ATOM     19  C   UNL     1      -0.760   0.237  -0.396  1.00  0.00     0.128 C 
ATOM     20  C   UNL     1      -2.280   0.299  -0.005  1.00  0.00     0.114 C 
ENDROOT
TORSDOF 0
