REMARK SMILES Cn1cc(S(=O)(=O)N2CCC3=Cc4c(cnn4-c4ccc(F)cc4)C[C@]3(C(=O)c3cc(C(F)(F)F)ccn3)C2)cn1
REMARK SMILES IDX 8 1 9 2 10 3 11 4 12 5 13 6 14 7 25 8 26 9 39 10 15 11 16 12
REMARK SMILES IDX 17 13 5 14 6 15 7 16 4 17 1 18 2 19 3 20 41 21 40 22 27 23
REMARK SMILES IDX 28 24 29 25 30 26 38 27 31 28 37 29 36 30 32 31 33 32 34 33
REMARK SMILES IDX 35 34 18 35 19 36 24 37 20 38 23 39 21 40 22 41
REMARK H PARENT
REMARK Flexibility Score: inf
ROOT
ATOM      1  N   UNL     1       2.798   0.100  -0.674  1.00  0.00    -0.196 NA
ATOM      2  C   UNL     1       2.499   0.123   0.775  1.00  0.00     0.107 C 
ATOM      3  C   UNL     1       1.055  -0.279   1.092  1.00  0.00     0.049 C 
ATOM      4  C   UNL     1       0.037  -0.097  -0.015  1.00  0.00    -0.051 C 
ATOM      5  C   UNL     1      -1.130  -0.785   0.052  1.00  0.00     0.029 C 
ATOM      6  C   UNL     1      -1.945  -0.771  -1.101  1.00  0.00     0.070 A 
ATOM      7  C   UNL     1      -1.496  -0.442  -2.360  1.00  0.00    -0.001 A 
ATOM      8  C   UNL     1      -0.105   0.047  -2.574  1.00  0.00     0.060 C 
ATOM      9  C   UNL     1       0.416   0.763  -1.264  1.00  0.00     0.074 C 
ATOM     10  C   UNL     1       1.928   1.042  -1.427  1.00  0.00     0.122 C 
ATOM     11  C   UNL     1      -2.559  -0.731  -3.214  1.00  0.00     0.140 A 
ATOM     12  N   UNL     1      -3.618  -1.206  -2.554  1.00  0.00    -0.176 NA
ATOM     13  N   UNL     1      -3.273  -1.154  -1.228  1.00  0.00    -0.233 N 
ENDROOT
BRANCH   1  14
ATOM     14  S   UNL     1       3.124  -1.399  -1.388  1.00  0.00     0.246 S 
ATOM     15  O   UNL     1       3.412  -1.185  -2.789  1.00  0.00    -0.207 OA
ATOM     16  O   UNL     1       2.135  -2.357  -0.947  1.00  0.00    -0.207 OA
BRANCH  14  17
ATOM     17  C   UNL     1       4.599  -1.983  -0.755  1.00  0.00     0.120 A 
ATOM     18  C   UNL     1       7.043  -4.274   0.534  1.00  0.00     0.173 C 
ATOM     19  N   UNL     1       6.226  -3.189   0.051  1.00  0.00    -0.274 N 
ATOM     20  C   UNL     1       4.939  -3.267  -0.392  1.00  0.00     0.130 A 
ATOM     21  N   UNL     1       6.732  -1.938   0.020  1.00  0.00    -0.180 NA
ATOM     22  C   UNL     1       5.739  -1.209  -0.502  1.00  0.00     0.156 A 
ENDBRANCH  14  17
ENDBRANCH   1  14
BRANCH   9  23
ATOM     23  C   UNL     1      -0.284   2.151  -1.226  1.00  0.00     0.193 C 
ATOM     24  O   UNL     1      -0.687   2.719  -2.245  1.00  0.00    -0.291 OA
BRANCH  23  25
ATOM     25  C   UNL     1      -0.446   2.886   0.059  1.00  0.00     0.108 A 
ATOM     26  C   UNL     1      -1.553   3.712   0.228  1.00  0.00     0.045 A 
ATOM     27  N   UNL     1       0.539   2.759   0.980  1.00  0.00    -0.253 NA
ATOM     28  C   UNL     1      -1.681   4.430   1.422  1.00  0.00     0.059 A 
ATOM     29  C   UNL     1       0.403   3.473   2.119  1.00  0.00     0.112 A 
ATOM     30  C   UNL     1      -0.672   4.305   2.384  1.00  0.00     0.033 A 
BRANCH  28  31
ATOM     31  C   UNL     1      -2.860   5.333   1.673  1.00  0.00     0.416 C 
ATOM     32  F   UNL     1      -3.855   5.194   0.759  1.00  0.00    -0.166 F 
ATOM     33  F   UNL     1      -2.513   6.648   1.661  1.00  0.00    -0.166 F 
ATOM     34  F   UNL     1      -3.430   5.107   2.888  1.00  0.00    -0.166 F 
ENDBRANCH  28  31
ENDBRANCH  23  25
ENDBRANCH   9  23
BRANCH  13  35
ATOM     35  C   UNL     1      -4.270  -1.425  -0.242  1.00  0.00     0.065 A 
ATOM     36  C   UNL     1      -5.455  -2.075  -0.637  1.00  0.00     0.031 A 
ATOM     37  C   UNL     1      -4.130  -1.022   1.095  1.00  0.00     0.031 A 
ATOM     38  C   UNL     1      -6.460  -2.349   0.293  1.00  0.00     0.041 A 
ATOM     39  C   UNL     1      -5.141  -1.298   2.022  1.00  0.00     0.041 A 
ATOM     40  C   UNL     1      -6.291  -1.962   1.615  1.00  0.00     0.123 A 
ATOM     41  F   UNL     1      -7.255  -2.220   2.508  1.00  0.00    -0.207 F 
ENDBRANCH  13  35
TORSDOF 6
