REMARK SMILES Cc1c(-c2ccccc2)oc2c(C(=O)OCCN3CCCCC3)cccc2c1=O
REMARK SMILES IDX 15 1 13 2 14 3 12 4 1 5 2 6 3 7 28 8 10 9 27 10 29 11 11 12
REMARK SMILES IDX 26 13 25 14 24 15 4 16 5 17 9 18 6 19 8 20 7 21 16 22 17 23
REMARK SMILES IDX 18 24 19 25 23 26 20 27 22 28 21 29
REMARK H PARENT
REMARK Flexibility Score: inf
ROOT
ATOM      1  O   UNL     1       0.494  -0.911  -0.153  1.00  0.00    -0.461 OA
ENDROOT
BRANCH   1   2
ATOM      2  C   UNL     1       0.497  -2.145   0.404  1.00  0.00     0.342 C 
ATOM      3  O   UNL     1       1.377  -2.625   1.100  1.00  0.00    -0.246 OA
BRANCH   2   4
ATOM      4  C   UNL     1      -0.696  -2.906  -0.030  1.00  0.00     0.103 A 
ATOM      5  C   UNL     1      -5.855  -0.466  -0.528  1.00  0.00     0.053 C 
ATOM      6  C   UNL     1      -4.493  -1.062  -0.331  1.00  0.00     0.040 C 
ATOM      7  C   UNL     1      -3.383  -0.433   0.098  1.00  0.00     0.141 C 
ATOM      8  C   UNL     1      -4.372  -2.503  -0.671  1.00  0.00     0.196 C 
ATOM      9  O   UNL     1      -2.137  -1.018   0.224  1.00  0.00    -0.455 OA
ATOM     10  C   UNL     1      -3.039  -3.115  -0.554  1.00  0.00     0.066 A 
ATOM     11  O   UNL     1      -5.337  -3.164  -1.036  1.00  0.00    -0.289 OA
ATOM     12  C   UNL     1      -1.970  -2.330  -0.130  1.00  0.00     0.153 A 
ATOM     13  C   UNL     1      -2.856  -4.468  -0.865  1.00  0.00     0.016 A 
ATOM     14  C   UNL     1      -1.594  -5.046  -0.743  1.00  0.00     0.002 A 
ATOM     15  C   UNL     1      -0.516  -4.267  -0.322  1.00  0.00     0.019 A 
BRANCH   7  16
ATOM     16  C   UNL     1      -3.364   0.988   0.480  1.00  0.00     0.018 A 
ATOM     17  C   UNL     1      -4.008   1.428   1.645  1.00  0.00     0.012 A 
ATOM     18  C   UNL     1      -2.671   1.914  -0.310  1.00  0.00     0.012 A 
ATOM     19  C   UNL     1      -3.972   2.777   2.002  1.00  0.00     0.001 A 
ATOM     20  C   UNL     1      -2.637   3.262   0.049  1.00  0.00     0.001 A 
ATOM     21  C   UNL     1      -3.289   3.693   1.204  1.00  0.00     0.000 A 
ENDBRANCH   7  16
ENDBRANCH   2   4
ENDBRANCH   1   2
BRANCH   1  22
ATOM     22  C   UNL     1       1.610  -0.070   0.192  1.00  0.00     0.248 C 
BRANCH  22  23
ATOM     23  C   UNL     1       2.790  -0.338  -0.757  1.00  0.00     0.126 C 
BRANCH  23  24
ATOM     24  N   UNL     1       3.988   0.494  -0.588  1.00  0.00    -0.300 NA
ATOM     25  C   UNL     1       3.812   1.876  -1.047  1.00  0.00     0.084 C 
ATOM     26  C   UNL     1       4.587   0.402   0.739  1.00  0.00     0.084 C 
ATOM     27  C   UNL     1       4.821   2.860  -0.438  1.00  0.00     0.016 C 
ATOM     28  C   UNL     1       6.014   0.962   0.711  1.00  0.00     0.016 C 
ATOM     29  C   UNL     1       6.166   2.194  -0.185  1.00  0.00     0.003 C 
ENDBRANCH  23  24
ENDBRANCH  22  23
ENDBRANCH   1  22
TORSDOF 6
