REMARK SMILES CC(C)(C(=O)c1cccnc1)c1cccnc1
REMARK SMILES IDX 1 1 2 2 3 3 4 4 5 5 6 6 7 7 11 8 8 9 10 10 9 11 12 12 13 13
REMARK SMILES IDX 17 14 14 15 16 16 15 17
REMARK H PARENT
REMARK Flexibility Score: inf
ROOT
ATOM      1  C   UNL     1      -0.946  -2.486  -0.840  1.00  0.00     0.025 C 
ATOM      2  C   UNL     1      -0.363  -1.251  -0.107  1.00  0.00     0.054 C 
ATOM      3  C   UNL     1       0.020  -1.732   1.312  1.00  0.00     0.025 C 
ENDROOT
BRANCH   2   4
ATOM      4  C   UNL     1       0.932  -0.814  -0.842  1.00  0.00     0.174 C 
ATOM      5  O   UNL     1       1.236  -1.274  -1.945  1.00  0.00    -0.293 OA
BRANCH   4   6
ATOM      6  C   UNL     1       1.869   0.180  -0.246  1.00  0.00     0.037 A 
ATOM      7  C   UNL     1       1.496   1.195   0.635  1.00  0.00     0.015 A 
ATOM      8  C   UNL     1       3.211   0.108  -0.609  1.00  0.00     0.122 A 
ATOM      9  C   UNL     1       2.466   2.071   1.126  1.00  0.00     0.021 A 
ATOM     10  N   UNL     1       4.175   0.939  -0.138  1.00  0.00    -0.264 NA
ATOM     11  C   UNL     1       3.778   1.904   0.717  1.00  0.00     0.111 A 
ENDBRANCH   4   6
ENDBRANCH   2   4
BRANCH   2  12
ATOM     12  C   UNL     1      -1.437  -0.162  -0.147  1.00  0.00    -0.016 A 
ATOM     13  C   UNL     1      -2.259   0.145   0.946  1.00  0.00     0.008 A 
ATOM     14  C   UNL     1      -1.670   0.565  -1.319  1.00  0.00     0.115 A 
ATOM     15  C   UNL     1      -3.222   1.147   0.841  1.00  0.00     0.020 A 
ATOM     16  N   UNL     1      -2.591   1.547  -1.444  1.00  0.00    -0.264 NA
ATOM     17  C   UNL     1      -3.347   1.816  -0.362  1.00  0.00     0.111 A 
ENDBRANCH   2  12
TORSDOF 3
