REMARK SMILES CN1[C@@H]2CC[C@H]1C[C@@H](OC(=O)c1c[nH]c3ccccc13)C2
REMARK SMILES IDX 10 1 11 2 9 3 8 4 1 5 2 6 3 7 6 8 4 9 21 10 5 11 7 12 12 13
REMARK SMILES IDX 13 14 20 15 14 16 15 17 19 18 16 20 18 21 17 22
REMARK H PARENT 14 19
REMARK Flexibility Score: inf
ROOT
ATOM      1  C   UNL     1       1.172   1.580   0.513  1.00  0.00     0.340 C 
ATOM      2  O   UNL     1       1.023   2.649   1.097  1.00  0.00    -0.246 OA
ENDROOT
BRANCH   1   3
ATOM      3  O   UNL     1       0.156   0.893  -0.089  1.00  0.00    -0.459 OA
BRANCH   3   4
ATOM      4  C   UNL     1      -1.149   1.515  -0.042  1.00  0.00     0.180 C 
ATOM      5  C   UNL     1      -4.616   0.916   0.312  1.00  0.00     0.105 C 
ATOM      6  N   UNL     1      -3.605  -0.121   0.390  1.00  0.00    -0.300 NA
ATOM      7  C   UNL     1      -2.790  -0.324  -0.810  1.00  0.00     0.060 C 
ATOM      8  C   UNL     1      -2.614   0.017   1.460  1.00  0.00     0.060 C 
ATOM      9  C   UNL     1      -1.888  -1.460  -0.319  1.00  0.00     0.021 C 
ATOM     10  C   UNL     1      -1.987   0.934  -1.194  1.00  0.00     0.064 C 
ATOM     11  C   UNL     1      -1.753  -1.222   1.189  1.00  0.00     0.021 C 
ATOM     12  C   UNL     1      -1.800   1.318   1.340  1.00  0.00     0.064 C 
ENDBRANCH   3   4
ENDBRANCH   1   3
BRANCH   1  13
ATOM     13  C   UNL     1       2.462   0.904   0.419  1.00  0.00     0.085 A 
ATOM     14  C   UNL     1       3.580   1.295   1.139  1.00  0.00     0.099 A 
ATOM     15  C   UNL     1       2.865  -0.224  -0.374  1.00  0.00     0.014 A 
ATOM     16  N   UNL     1       4.613   0.454   0.838  1.00  0.00    -0.360 N 
ATOM     17  C   UNL     1       4.208  -0.483  -0.082  1.00  0.00     0.046 A 
ATOM     18  C   UNL     1       2.228  -1.052  -1.324  1.00  0.00     0.011 A 
ATOM     19  H   UNL     1       5.545   0.510   1.227  1.00  0.00     0.166 HD
ATOM     20  C   UNL     1       4.931  -1.526  -0.674  1.00  0.00     0.027 A 
ATOM     21  C   UNL     1       2.936  -2.100  -1.926  1.00  0.00     0.001 A 
ATOM     22  C   UNL     1       4.268  -2.333  -1.602  1.00  0.00     0.002 A 
ENDBRANCH   1  13
TORSDOF 3
