REMARK SMILES Nc1ccc(S(=O)(=O)Nc2nccs2)cc1
REMARK SMILES IDX 6 1 7 2 8 3 5 4 2 5 3 6 16 7 4 8 15 9 1 10 9 13 10 15 11 16
REMARK SMILES IDX 14 17 12 18 13 19
REMARK H PARENT 1 11 1 12 9 14
REMARK Flexibility Score: inf
ROOT
ATOM      1  S   UNL     1       0.758  -1.074   0.567  1.00  0.00     0.263 S 
ATOM      2  O   UNL     1       0.926  -0.655   1.941  1.00  0.00    -0.201 OA
ATOM      3  O   UNL     1       0.974  -2.445   0.156  1.00  0.00    -0.201 OA
ENDROOT
BRANCH   1   4
ATOM      4  C   UNL     1      -0.894  -0.621   0.089  1.00  0.00     0.088 A 
ATOM      5  C   UNL     1      -3.513   0.091  -0.597  1.00  0.00     0.031 A 
ATOM      6  C   UNL     1      -2.963  -1.115  -1.046  1.00  0.00     0.027 A 
ATOM      7  C   UNL     1      -2.710   0.967   0.141  1.00  0.00     0.027 A 
ATOM      8  C   UNL     1      -1.665  -1.488  -0.687  1.00  0.00     0.024 A 
ATOM      9  C   UNL     1      -1.410   0.607   0.508  1.00  0.00     0.024 A 
BRANCH   5  10
ATOM     10  N   UNL     1      -4.765   0.508  -1.061  1.00  0.00    -0.399 N 
ATOM     11  H   UNL     1      -5.214   1.201  -0.470  1.00  0.00     0.156 HD
ATOM     12  H   UNL     1      -5.391  -0.254  -1.301  1.00  0.00     0.156 HD
ENDBRANCH   5  10
ENDBRANCH   1   4
BRANCH   1  13
ATOM     13  N   UNL     1       1.652  -0.107  -0.493  1.00  0.00    -0.255 N 
ATOM     14  H   UNL     1       1.933  -0.707  -1.270  1.00  0.00     0.182 HD
BRANCH  13  15
ATOM     15  C   UNL     1       2.879   0.363   0.119  1.00  0.00     0.196 A 
ATOM     16  N   UNL     1       4.007  -0.196  -0.241  1.00  0.00    -0.228 NA
ATOM     17  S   UNL     1       2.989   1.728   1.138  1.00  0.00    -0.105 S 
ATOM     18  C   UNL     1       5.048   0.441   0.408  1.00  0.00     0.125 A 
ATOM     19  C   UNL     1       4.690   1.508   1.206  1.00  0.00     0.089 A 
ENDBRANCH  13  15
ENDBRANCH   1  13
TORSDOF 4
