REMARK SMILES COc1cc2[nH]c(C)c(CCN3CCN(c4ccccc4)CC3)c2cc1OC
REMARK SMILES IDX 10 1 9 2 3 3 4 4 26 5 5 6 25 7 6 8 24 9 7 10 8 12 2 13 1 14
REMARK SMILES IDX 27 15 28 16 11 17 12 18 13 19 23 20 14 21 22 22 15 23 16 24
REMARK SMILES IDX 17 25 21 26 18 27 20 28 19 29
REMARK H PARENT 6 11
REMARK Flexibility Score: inf
ROOT
ATOM      1  C   UNL     1      -0.299  -0.742  -0.406  1.00  0.00     0.053 C 
ENDROOT
BRANCH   1   2
ATOM      2  C   UNL     1      -1.669  -1.118  -0.895  1.00  0.00    -0.018 A 
ATOM      3  C   UNL     1      -5.563   0.442  -0.427  1.00  0.00     0.162 A 
ATOM      4  C   UNL     1      -5.257  -0.696  -1.188  1.00  0.00     0.077 A 
ATOM      5  C   UNL     1      -4.546   1.146   0.247  1.00  0.00     0.161 A 
ATOM      6  C   UNL     1      -3.917  -1.102  -1.254  1.00  0.00     0.050 A 
ATOM      7  C   UNL     1      -3.212   0.716   0.159  1.00  0.00     0.061 A 
ATOM      8  N   UNL     1      -3.348  -2.164  -1.915  1.00  0.00    -0.358 N 
ATOM      9  C   UNL     1      -2.890  -0.427  -0.604  1.00  0.00     0.007 A 
ATOM     10  C   UNL     1      -1.992  -2.194  -1.706  1.00  0.00     0.016 A 
ATOM     11  H   UNL     1      -3.864  -2.829  -2.474  1.00  0.00     0.166 HD
ATOM     12  C   UNL     1      -1.136  -3.248  -2.310  1.00  0.00     0.064 C 
BRANCH   3  13
ATOM     13  O   UNL     1      -6.835   0.946  -0.279  1.00  0.00    -0.493 OA
ATOM     14  C   UNL     1      -7.893   0.272  -0.944  1.00  0.00     0.278 C 
ENDBRANCH   3  13
BRANCH   5  15
ATOM     15  O   UNL     1      -4.952   2.247   0.965  1.00  0.00    -0.493 OA
ATOM     16  C   UNL     1      -3.966   2.953   1.704  1.00  0.00     0.278 C 
ENDBRANCH   5  15
ENDBRANCH   1   2
BRANCH   1  17
ATOM     17  C   UNL     1      -0.017  -1.299   1.002  1.00  0.00     0.089 C 
BRANCH  17  18
ATOM     18  N   UNL     1       1.295  -0.995   1.589  1.00  0.00    -0.299 NA
ATOM     19  C   UNL     1       2.403  -1.730   0.955  1.00  0.00     0.106 C 
ATOM     20  C   UNL     1       1.585   0.442   1.732  1.00  0.00     0.106 C 
ATOM     21  C   UNL     1       3.799  -1.145   1.275  1.00  0.00     0.132 C 
ATOM     22  C   UNL     1       2.644   1.017   0.759  1.00  0.00     0.132 C 
ATOM     23  N   UNL     1       3.898   0.247   0.807  1.00  0.00    -0.369 N 
BRANCH  23  24
ATOM     24  C   UNL     1       5.117   0.831   0.506  1.00  0.00     0.037 A 
ATOM     25  C   UNL     1       5.207   1.994  -0.277  1.00  0.00     0.026 A 
ATOM     26  C   UNL     1       6.333   0.292   0.958  1.00  0.00     0.026 A 
ATOM     27  C   UNL     1       6.436   2.589  -0.589  1.00  0.00     0.002 A 
ATOM     28  C   UNL     1       7.568   0.880   0.653  1.00  0.00     0.002 A 
ATOM     29  C   UNL     1       7.619   2.031  -0.122  1.00  0.00     0.000 A 
ENDBRANCH  23  24
ENDBRANCH  17  18
ENDBRANCH   1  17
TORSDOF 6
