REMARK SMILES CNC(=C[N+](=O)[O-])NCCSCc1csc(CN(C)C)n1
REMARK SMILES IDX 10 1 9 2 8 3 3 5 4 6 2 7 1 8 5 10 6 11 7 12 11 13 12 14
REMARK SMILES IDX 13 15 14 16 21 17 15 18 16 19 17 20 18 21 19 22 20 23
REMARK H PARENT 8 4 2 9
REMARK Flexibility Score: inf
ROOT
ATOM      1  C   UNL     1       1.993   0.165   0.695  1.00  0.00     0.091 C 
ENDROOT
BRANCH   1   2
ATOM      2  C   UNL     1       2.818  -0.426  -0.453  1.00  0.00     0.125 C 
BRANCH   2   3
ATOM      3  N   UNL     1       3.931   0.456  -0.824  1.00  0.00    -0.366 N 
ATOM      4  H   UNL     1       3.621   1.267  -1.354  1.00  0.00     0.162 HD
BRANCH   3   5
ATOM      5  C   UNL     1       5.042   0.697  -0.014  1.00  0.00     0.171 C 
ATOM      6  C   UNL     1       5.629   1.912  -0.104  1.00  0.00     0.424 C 
BRANCH   5   7
ATOM      7  N   UNL     1       5.451  -0.316   0.843  1.00  0.00    -0.370 N 
ATOM      8  C   UNL     1       5.956  -1.582   0.319  1.00  0.00     0.141 C 
ATOM      9  H   UNL     1       6.139   0.040   1.520  1.00  0.00     0.161 HD
ENDBRANCH   5   7
BRANCH   6  10
ATOM     10  N   UNL     1       6.776   2.304   0.677  1.00  0.00     0.058 N 
ATOM     11  O   UNL     1       7.217   1.544   1.551  1.00  0.00    -0.259 OA
ATOM     12  O   UNL     1       7.245   3.418   0.409  1.00  0.00    -0.259 OA
ENDBRANCH   6  10
ENDBRANCH   3   5
ENDBRANCH   2   3
ENDBRANCH   1   2
BRANCH   1  13
ATOM     13  S   UNL     1       0.536  -0.854   1.111  1.00  0.00    -0.154 SA
BRANCH  13  14
ATOM     14  C   UNL     1      -0.543  -0.426  -0.295  1.00  0.00     0.126 C 
BRANCH  14  15
ATOM     15  C   UNL     1      -1.913  -0.997  -0.116  1.00  0.00     0.062 A 
ATOM     16  C   UNL     1      -2.270  -2.330  -0.207  1.00  0.00     0.091 A 
ATOM     17  N   UNL     1      -2.971  -0.135   0.145  1.00  0.00    -0.244 NA
ATOM     18  S   UNL     1      -3.949  -2.518   0.062  1.00  0.00    -0.126 S 
ATOM     19  C   UNL     1      -4.095  -0.815   0.268  1.00  0.00     0.107 A 
BRANCH  19  20
ATOM     20  C   UNL     1      -5.438  -0.198   0.580  1.00  0.00     0.151 C 
BRANCH  20  21
ATOM     21  N   UNL     1      -6.329  -0.087  -0.599  1.00  0.00    -0.303 NA
ATOM     22  C   UNL     1      -5.802   0.883  -1.564  1.00  0.00     0.105 C 
ATOM     23  C   UNL     1      -7.669   0.315  -0.169  1.00  0.00     0.105 C 
ENDBRANCH  20  21
ENDBRANCH  19  20
ENDBRANCH  14  15
ENDBRANCH  13  14
ENDBRANCH   1  13
TORSDOF 10
