REMARK SMILES COc1ccc(C(CN(C)C)C2(O)CCCCC2)cc1
REMARK SMILES IDX 7 1 6 2 3 3 4 4 20 5 5 6 19 7 2 8 1 9 8 10 9 11 10 12 11 13
REMARK SMILES IDX 12 14 14 15 18 16 15 17 17 18 16 19 13 20
REMARK H PARENT 13 21
REMARK Flexibility Score: inf
ROOT
ATOM      1  C   UNL     1      -0.173   0.518  -0.286  1.00  0.00     0.065 C 
ENDROOT
BRANCH   1   2
ATOM      2  C   UNL     1       1.255   0.125   0.119  1.00  0.00    -0.040 A 
ATOM      3  C   UNL     1       3.891  -0.624   0.804  1.00  0.00     0.118 A 
ATOM      4  C   UNL     1       3.026  -0.105   1.768  1.00  0.00     0.047 A 
ATOM      5  C   UNL     1       3.439  -0.766  -0.506  1.00  0.00     0.047 A 
ATOM      6  C   UNL     1       1.722   0.268   1.432  1.00  0.00     0.008 A 
ATOM      7  C   UNL     1       2.133  -0.393  -0.846  1.00  0.00     0.008 A 
BRANCH   3   8
ATOM      8  O   UNL     1       5.136  -0.949   1.268  1.00  0.00    -0.497 OA
ATOM      9  C   UNL     1       6.056  -1.477   0.321  1.00  0.00     0.278 C 
ENDBRANCH   3   8
ENDBRANCH   1   2
BRANCH   1  10
ATOM     10  C   UNL     1      -0.457   1.983   0.180  1.00  0.00     0.095 C 
BRANCH  10  11
ATOM     11  N   UNL     1      -1.493   2.703  -0.593  1.00  0.00    -0.309 NA
ATOM     12  C   UNL     1      -0.988   3.140  -1.897  1.00  0.00     0.105 C 
ATOM     13  C   UNL     1      -1.968   3.865   0.164  1.00  0.00     0.105 C 
ENDBRANCH  10  11
ENDBRANCH   1  10
BRANCH   1  14
ATOM     14  C   UNL     1      -1.253  -0.532   0.183  1.00  0.00     0.073 C 
ATOM     15  C   UNL     1      -2.670  -0.140  -0.309  1.00  0.00     0.036 C 
ATOM     16  C   UNL     1      -0.933  -1.962  -0.310  1.00  0.00     0.036 C 
ATOM     17  C   UNL     1      -3.647  -1.313  -0.471  1.00  0.00     0.003 C 
ATOM     18  C   UNL     1      -1.923  -3.016   0.204  1.00  0.00     0.003 C 
ATOM     19  C   UNL     1      -3.329  -2.476   0.450  1.00  0.00     0.000 C 
BRANCH  14  20
ATOM     20  O   UNL     1      -1.302  -0.558   1.622  1.00  0.00    -0.389 OA
ATOM     21  H   UNL     1      -0.539  -1.078   1.929  1.00  0.00     0.211 HD
ENDBRANCH  14  20
ENDBRANCH   1  14
TORSDOF 6
