REMARK SMILES C[N+]1(CCCCC[N+]2(C)CCCC2)CCCC1
REMARK SMILES IDX 5 1 4 2 3 3 2 4 1 5 14 6 17 7 15 8 16 9 6 10 7 11 8 12 9 13
REMARK SMILES IDX 10 14 13 15 11 16 12 17
REMARK H PARENT
REMARK Flexibility Score: inf
ROOT
ATOM      1  C   UNL     1       0.454   0.372   0.422  1.00  0.00     0.012 C 
ENDROOT
BRANCH   1   2
ATOM      2  C   UNL     1       0.964   0.759  -0.972  1.00  0.00     0.062 C 
BRANCH   2   3
ATOM      3  C   UNL     1       2.115   1.784  -1.030  1.00  0.00     0.263 C 
BRANCH   3   4
ATOM      4  N   UNL     1       3.543   1.273  -0.782  1.00  0.00    -0.326 N 
ATOM      5  C   UNL     1       4.511   2.389  -1.231  1.00  0.00     0.334 C 
ATOM      6  C   UNL     1       3.895  -0.003  -1.570  1.00  0.00     0.263 C 
ATOM      7  C   UNL     1       3.844   0.955   0.699  1.00  0.00     0.263 C 
ATOM      8  C   UNL     1       3.863  -1.106  -0.534  1.00  0.00     0.067 C 
ATOM      9  C   UNL     1       4.447  -0.438   0.694  1.00  0.00     0.067 C 
ENDBRANCH   3   4
ENDBRANCH   2   3
ENDBRANCH   1   2
BRANCH   1  10
ATOM     10  C   UNL     1      -0.757  -0.582   0.392  1.00  0.00     0.062 C 
BRANCH  10  11
ATOM     11  C   UNL     1      -2.065   0.083  -0.060  1.00  0.00     0.263 C 
BRANCH  11  12
ATOM     12  N   UNL     1      -3.291  -0.830   0.103  1.00  0.00    -0.326 N 
ATOM     13  C   UNL     1      -3.156  -2.108  -0.726  1.00  0.00     0.334 C 
ATOM     14  C   UNL     1      -3.560  -1.187   1.582  1.00  0.00     0.263 C 
ATOM     15  C   UNL     1      -4.580  -0.075  -0.354  1.00  0.00     0.263 C 
ATOM     16  C   UNL     1      -5.068  -1.206   1.698  1.00  0.00     0.067 C 
ATOM     17  C   UNL     1      -5.472  -0.007   0.872  1.00  0.00     0.067 C 
ENDBRANCH  11  12
ENDBRANCH  10  11
ENDBRANCH   1  10
TORSDOF 6
