REMARK SMILES Cn1c(=O)cc(N2CCC[C@@H](N)C2)n(Cc2cc(F)ccc2C#N)c1=O
REMARK SMILES IDX 1 1 2 2 3 3 4 4 5 5 6 6 14 7 25 8 26 9 15 10 16 11 17 12
REMARK SMILES IDX 22 13 18 14 21 15 19 16 20 17 23 18 24 19 7 20 8 21 13 22
REMARK SMILES IDX 9 23 11 24 10 25 12 26
REMARK H PARENT 12 27 12 28
REMARK Flexibility Score: inf
ROOT
ATOM      1  C   UNL     1       0.764   4.322  -2.796  1.00  0.00     0.158 C 
ATOM      2  N   UNL     1       0.290   3.217  -1.985  1.00  0.00    -0.263 N 
ATOM      3  C   UNL     1      -0.940   2.671  -2.261  1.00  0.00     0.258 C 
ATOM      4  O   UNL     1      -1.699   3.047  -3.152  1.00  0.00    -0.269 OA
ATOM      5  C   UNL     1      -1.357   1.557  -1.406  1.00  0.00     0.117 C 
ATOM      6  C   UNL     1      -0.575   1.098  -0.419  1.00  0.00     0.118 C 
ATOM      7  N   UNL     1       0.661   1.694  -0.214  1.00  0.00    -0.275 N 
ATOM      8  C   UNL     1       1.131   2.758  -0.983  1.00  0.00     0.332 C 
ATOM      9  O   UNL     1       2.241   3.263  -0.798  1.00  0.00    -0.247 OA
ENDROOT
BRANCH   7  10
ATOM     10  C   UNL     1       1.555   1.174   0.831  1.00  0.00     0.166 C 
BRANCH  10  11
ATOM     11  C   UNL     1       2.252  -0.123   0.448  1.00  0.00    -0.007 A 
ATOM     12  C   UNL     1       2.952  -0.199  -0.772  1.00  0.00     0.046 A 
ATOM     13  C   UNL     1       2.259  -1.253   1.294  1.00  0.00     0.057 A 
ATOM     14  C   UNL     1       3.598  -1.372  -1.147  1.00  0.00     0.123 A 
ATOM     15  C   UNL     1       2.915  -2.431   0.896  1.00  0.00     0.023 A 
ATOM     16  F   UNL     1       4.250  -1.422  -2.316  1.00  0.00    -0.207 F 
ATOM     17  C   UNL     1       3.580  -2.491  -0.328  1.00  0.00     0.040 A 
BRANCH  13  18
ATOM     18  C   UNL     1       1.616  -1.244   2.579  1.00  0.00     0.099 C 
ATOM     19  N   UNL     1       1.100  -1.234   3.619  1.00  0.00    -0.192 NA
ENDBRANCH  13  18
ENDBRANCH  10  11
ENDBRANCH   7  10
BRANCH   6  20
ATOM     20  N   UNL     1      -1.023   0.045   0.390  1.00  0.00    -0.356 N 
ATOM     21  C   UNL     1      -1.798   0.359   1.611  1.00  0.00     0.118 C 
ATOM     22  C   UNL     1      -1.292  -1.282  -0.218  1.00  0.00     0.136 C 
ATOM     23  C   UNL     1      -3.178  -0.288   1.567  1.00  0.00     0.023 C 
ATOM     24  C   UNL     1      -1.783  -2.296   0.837  1.00  0.00     0.070 C 
ATOM     25  C   UNL     1      -3.100  -1.814   1.465  1.00  0.00     0.022 C 
BRANCH  24  26
ATOM     26  N   UNL     1      -1.939  -3.651   0.295  1.00  0.00    -0.326 NA
ATOM     27  H   UNL     1      -2.249  -4.277   1.039  1.00  0.00     0.119 HD
ATOM     28  H   UNL     1      -2.681  -3.664  -0.405  1.00  0.00     0.119 HD
ENDBRANCH  24  26
ENDBRANCH   6  20
TORSDOF 5
