REMARK SMILES COCc1nn(Cc2ccc(Cn3ccccc3=O)cc2)cc1C(=O)NCc1nccc(OC)c1F
REMARK SMILES IDX 4 1 5 2 6 3 22 4 23 5 3 6 2 7 1 8 24 9 25 10 26 11 27 13
REMARK SMILES IDX 28 14 29 15 35 16 30 17 32 18 36 19 31 20 33 21 34 22 7 23
REMARK SMILES IDX 8 24 9 25 21 26 10 27 20 28 11 29 12 30 13 31 14 32 18 33
REMARK SMILES IDX 15 34 17 35 19 36 16 37
REMARK H PARENT 26 12
REMARK Flexibility Score: inf
ROOT
ATOM      1  C   UNL     1      -1.430  -0.939   1.324  1.00  0.00     0.101 A 
ATOM      2  N   UNL     1      -0.275  -0.986   2.009  1.00  0.00    -0.174 NA
ATOM      3  N   UNL     1       0.499  -1.828   1.297  1.00  0.00    -0.267 N 
ATOM      4  C   UNL     1      -0.135  -2.340   0.206  1.00  0.00     0.123 A 
ATOM      5  C   UNL     1      -1.393  -1.765   0.159  1.00  0.00     0.083 A 
ENDROOT
BRANCH   1   6
ATOM      6  C   UNL     1      -2.550  -0.089   1.841  1.00  0.00     0.218 C 
BRANCH   6   7
ATOM      7  O   UNL     1      -3.028   0.856   0.871  1.00  0.00    -0.378 OA
ATOM      8  C   UNL     1      -2.150   1.970   0.733  1.00  0.00     0.195 C 
ENDBRANCH   6   7
ENDBRANCH   1   6
BRANCH   5   9
ATOM      9  C   UNL     1      -2.372  -2.050  -0.882  1.00  0.00     0.255 C 
ATOM     10  O   UNL     1      -2.213  -2.974  -1.676  1.00  0.00    -0.269 OA
ATOM     11  N   UNL     1      -3.459  -1.215  -0.945  1.00  0.00    -0.346 N 
ATOM     12  H   UNL     1      -3.419  -0.317  -0.468  1.00  0.00     0.164 HD
BRANCH  11  13
ATOM     13  C   UNL     1      -4.395  -1.320  -2.045  1.00  0.00     0.176 C 
BRANCH  13  14
ATOM     14  C   UNL     1      -5.582  -0.414  -1.854  1.00  0.00     0.099 A 
ATOM     15  N   UNL     1      -5.357   0.928  -1.918  1.00  0.00    -0.256 NA
ATOM     16  C   UNL     1      -6.840  -0.946  -1.596  1.00  0.00     0.188 A 
ATOM     17  C   UNL     1      -6.419   1.738  -1.719  1.00  0.00     0.115 A 
ATOM     18  C   UNL     1      -7.922  -0.087  -1.396  1.00  0.00     0.158 A 
ATOM     19  F   UNL     1      -7.016  -2.275  -1.539  1.00  0.00    -0.201 F 
ATOM     20  C   UNL     1      -7.704   1.287  -1.458  1.00  0.00     0.069 A 
BRANCH  18  21
ATOM     21  O   UNL     1      -9.126  -0.692  -1.151  1.00  0.00    -0.494 OA
ATOM     22  C   UNL     1     -10.254   0.152  -0.960  1.00  0.00     0.278 C 
ENDBRANCH  18  21
ENDBRANCH  13  14
ENDBRANCH  11  13
ENDBRANCH   5   9
BRANCH   3  23
ATOM     23  C   UNL     1       1.839  -2.172   1.761  1.00  0.00     0.179 C 
BRANCH  23  24
ATOM     24  C   UNL     1       2.885  -1.150   1.380  1.00  0.00    -0.027 A 
ATOM     25  C   UNL     1       3.016  -0.678   0.064  1.00  0.00     0.006 A 
ATOM     26  C   UNL     1       3.806  -0.709   2.342  1.00  0.00     0.006 A 
ATOM     27  C   UNL     1       4.029   0.224  -0.274  1.00  0.00     0.006 A 
ATOM     28  C   UNL     1       4.823   0.186   2.002  1.00  0.00     0.006 A 
ATOM     29  C   UNL     1       4.943   0.665   0.690  1.00  0.00    -0.028 A 
BRANCH  29  30
ATOM     30  C   UNL     1       6.064   1.612   0.323  1.00  0.00     0.160 C 
BRANCH  30  31
ATOM     31  N   UNL     1       7.330   0.916   0.103  1.00  0.00    -0.311 N 
ATOM     32  C   UNL     1       7.560   0.293  -1.116  1.00  0.00     0.089 C 
ATOM     33  C   UNL     1       8.255   0.865   1.145  1.00  0.00     0.250 C 
ATOM     34  C   UNL     1       8.693  -0.380  -1.350  1.00  0.00     0.018 C 
ATOM     35  C   UNL     1       9.512   0.115   0.865  1.00  0.00     0.072 C 
ATOM     36  O   UNL     1       8.106   1.385   2.247  1.00  0.00    -0.269 OA
ATOM     37  C   UNL     1       9.699  -0.472  -0.325  1.00  0.00     0.007 C 
ENDBRANCH  30  31
ENDBRANCH  29  30
ENDBRANCH  23  24
ENDBRANCH   3  23
TORSDOF 10
