REMARK SMILES OC(c1cc(C(F)(F)F)nc2c(C(F)(F)F)cccc12)C1CCCCN1
REMARK SMILES IDX 3 1 4 2 5 3 10 4 11 5 12 6 17 7 18 8 19 9 20 10 2 11 1 12
REMARK SMILES IDX 21 14 22 15 26 16 23 17 25 18 24 20 6 21 7 22 8 23 9 24
REMARK SMILES IDX 13 25 14 26 15 27 16 28
REMARK H PARENT 1 13 26 19
REMARK Flexibility Score: inf
ROOT
ATOM      1  C   UNL     1      -0.669   0.297   0.732  1.00  0.00    -0.006 A 
ATOM      2  C   UNL     1      -0.956   1.664   0.897  1.00  0.00     0.040 A 
ATOM      3  C   UNL     1      -2.068   2.226   0.286  1.00  0.00     0.145 A 
ATOM      4  N   UNL     1      -2.902   1.479  -0.479  1.00  0.00    -0.243 NA
ATOM      5  C   UNL     1      -2.658   0.173  -0.670  1.00  0.00     0.083 A 
ATOM      6  C   UNL     1      -3.540  -0.549  -1.475  1.00  0.00     0.082 A 
ATOM      7  C   UNL     1      -3.340  -1.918  -1.718  1.00  0.00     0.015 A 
ATOM      8  C   UNL     1      -2.262  -2.574  -1.152  1.00  0.00     0.001 A 
ATOM      9  C   UNL     1      -1.379  -1.863  -0.344  1.00  0.00     0.011 A 
ATOM     10  C   UNL     1      -1.542  -0.482  -0.082  1.00  0.00     0.007 A 
ENDROOT
BRANCH   1  11
ATOM     11  C   UNL     1       0.595  -0.200   1.433  1.00  0.00     0.162 C 
BRANCH  11  12
ATOM     12  O   UNL     1       0.455  -1.528   1.947  1.00  0.00    -0.387 OA
ATOM     13  H   UNL     1       1.217  -1.692   2.527  1.00  0.00     0.211 HD
ENDBRANCH  11  12
BRANCH  11  14
ATOM     14  C   UNL     1       1.887  -0.063   0.557  1.00  0.00     0.087 C 
ATOM     15  C   UNL     1       3.130   0.079   1.455  1.00  0.00     0.022 C 
ATOM     16  N   UNL     1       2.041  -1.187  -0.388  1.00  0.00    -0.311 NA
ATOM     17  C   UNL     1       4.391   0.345   0.631  1.00  0.00     0.003 C 
ATOM     18  C   UNL     1       3.418  -1.541  -0.725  1.00  0.00     0.081 C 
ATOM     19  H   UNL     1       1.561  -2.008  -0.016  1.00  0.00     0.123 HD
ATOM     20  C   UNL     1       4.346  -0.334  -0.736  1.00  0.00     0.015 C 
ENDBRANCH  11  14
ENDBRANCH   1  11
BRANCH   3  21
ATOM     21  C   UNL     1      -2.360   3.706   0.499  1.00  0.00     0.433 C 
ATOM     22  F   UNL     1      -1.258   4.486   0.286  1.00  0.00    -0.165 F 
ATOM     23  F   UNL     1      -2.749   3.978   1.780  1.00  0.00    -0.165 F 
ATOM     24  F   UNL     1      -3.333   4.214  -0.305  1.00  0.00    -0.165 F 
ENDBRANCH   3  21
BRANCH   6  25
ATOM     25  C   UNL     1      -4.724   0.153  -2.087  1.00  0.00     0.418 C 
ATOM     26  F   UNL     1      -5.489  -0.683  -2.855  1.00  0.00    -0.166 F 
ATOM     27  F   UNL     1      -5.589   0.667  -1.167  1.00  0.00    -0.166 F 
ATOM     28  F   UNL     1      -4.386   1.177  -2.922  1.00  0.00    -0.166 F 
ENDBRANCH   6  25
TORSDOF 5
