REMARK SMILES COC(=O)Nc1nc2cc(C(=O)c3ccccc3)ccc2[nH]1
REMARK SMILES IDX 6 1 7 2 8 3 9 4 10 5 19 6 20 7 21 8 22 9 5 11 3 12 4 13 2 15
REMARK SMILES IDX 1 16 11 17 12 18 13 19 14 20 18 21 15 22 17 23 16 24
REMARK H PARENT 22 10 5 14
REMARK Flexibility Score: inf
ROOT
ATOM      1  C   UNL     1       2.728  -0.953  -0.324  1.00  0.00     0.210 A 
ATOM      2  N   UNL     1       1.781  -0.092  -0.037  1.00  0.00    -0.213 NA
ATOM      3  C   UNL     1       0.630  -0.823   0.103  1.00  0.00     0.091 A 
ATOM      4  C   UNL     1      -0.667  -0.394   0.414  1.00  0.00     0.042 A 
ATOM      5  C   UNL     1      -1.687  -1.356   0.479  1.00  0.00     0.025 A 
ATOM      6  C   UNL     1      -1.403  -2.716   0.276  1.00  0.00     0.014 A 
ATOM      7  C   UNL     1      -0.110  -3.157  -0.029  1.00  0.00     0.029 A 
ATOM      8  C   UNL     1       0.876  -2.173  -0.109  1.00  0.00     0.067 A 
ATOM      9  N   UNL     1       2.220  -2.228  -0.375  1.00  0.00    -0.324 N 
ATOM     10  H   UNL     1       2.747  -3.064  -0.572  1.00  0.00     0.170 HD
ENDROOT
BRANCH   1  11
ATOM     11  N   UNL     1       4.056  -0.722  -0.556  1.00  0.00    -0.261 N 
ATOM     12  C   UNL     1       4.612   0.524  -0.524  1.00  0.00     0.413 C 
ATOM     13  O   UNL     1       4.079   1.600  -0.309  1.00  0.00    -0.224 OA
ATOM     14  H   UNL     1       4.690  -1.476  -0.760  1.00  0.00     0.176 HD
BRANCH  12  15
ATOM     15  O   UNL     1       5.943   0.383  -0.791  1.00  0.00    -0.453 OA
ATOM     16  C   UNL     1       6.667   1.616  -0.792  1.00  0.00     0.284 C 
ENDBRANCH  12  15
ENDBRANCH   1  11
BRANCH   5  17
ATOM     17  C   UNL     1      -3.084  -0.977   0.815  1.00  0.00     0.193 C 
ATOM     18  O   UNL     1      -3.775  -1.762   1.459  1.00  0.00    -0.289 OA
BRANCH  17  19
ATOM     19  C   UNL     1      -3.668   0.321   0.390  1.00  0.00     0.022 A 
ATOM     20  C   UNL     1      -3.346   0.909  -0.839  1.00  0.00     0.012 A 
ATOM     21  C   UNL     1      -4.601   0.938   1.233  1.00  0.00     0.012 A 
ATOM     22  C   UNL     1      -3.929   2.125  -1.203  1.00  0.00     0.001 A 
ATOM     23  C   UNL     1      -5.182   2.152   0.864  1.00  0.00     0.001 A 
ATOM     24  C   UNL     1      -4.842   2.746  -0.351  1.00  0.00     0.000 A 
ENDBRANCH  17  19
ENDBRANCH   5  17
TORSDOF 4
