REMARK SMILES CCC(=O)c1ccc2c(c1)N(CC(C)N(C)C)c1ccccc1S2
REMARK SMILES IDX 5 1 6 2 7 3 8 4 9 5 10 6 11 7 18 8 19 9 20 10 21 11 22 12
REMARK SMILES IDX 23 13 24 14 3 15 4 16 2 17 1 18 12 19 13 20 14 21 15 22
REMARK SMILES IDX 16 23 17 24
REMARK H PARENT
REMARK Flexibility Score: inf
ROOT
ATOM      1  C   UNL     1       2.946  -0.717   0.149  1.00  0.00     0.020 A 
ATOM      2  C   UNL     1       3.145  -0.155   1.408  1.00  0.00     0.013 A 
ATOM      3  C   UNL     1       2.199   0.729   1.929  1.00  0.00     0.018 A 
ATOM      4  C   UNL     1       1.041   1.060   1.207  1.00  0.00     0.036 A 
ATOM      5  C   UNL     1       0.807   0.490  -0.057  1.00  0.00     0.056 A 
ATOM      6  C   UNL     1       1.788  -0.383  -0.572  1.00  0.00     0.039 A 
ATOM      7  N   UNL     1      -0.346   0.808  -0.826  1.00  0.00    -0.338 N 
ATOM      8  C   UNL     1      -1.167   1.945  -0.592  1.00  0.00     0.055 A 
ATOM      9  C   UNL     1      -1.995   2.447  -1.617  1.00  0.00     0.027 A 
ATOM     10  C   UNL     1      -2.804   3.571  -1.427  1.00  0.00     0.002 A 
ATOM     11  C   UNL     1      -2.793   4.232  -0.206  1.00  0.00     0.001 A 
ATOM     12  C   UNL     1      -1.959   3.778   0.813  1.00  0.00     0.017 A 
ATOM     13  C   UNL     1      -1.138   2.652   0.625  1.00  0.00     0.036 A 
ATOM     14  S   UNL     1      -0.106   2.171   1.995  1.00  0.00    -0.086 SA
ENDROOT
BRANCH   1  15
ATOM     15  C   UNL     1       3.917  -1.666  -0.480  1.00  0.00     0.162 C 
ATOM     16  O   UNL     1       3.646  -2.174  -1.568  1.00  0.00    -0.294 OA
BRANCH  15  17
ATOM     17  C   UNL     1       5.226  -1.988   0.211  1.00  0.00     0.077 C 
ATOM     18  C   UNL     1       6.271  -0.924  -0.061  1.00  0.00     0.012 C 
ENDBRANCH  15  17
ENDBRANCH   1  15
BRANCH   7  19
ATOM     19  C   UNL     1      -1.070  -0.375  -1.382  1.00  0.00     0.141 C 
BRANCH  19  20
ATOM     20  C   UNL     1      -1.675  -1.323  -0.289  1.00  0.00     0.072 C 
ATOM     21  C   UNL     1      -2.124  -2.634  -0.956  1.00  0.00     0.026 C 
BRANCH  20  22
ATOM     22  N   UNL     1      -2.728  -0.678   0.532  1.00  0.00    -0.305 NA
ATOM     23  C   UNL     1      -4.012  -0.501  -0.136  1.00  0.00     0.105 C 
ATOM     24  C   UNL     1      -2.900  -1.325   1.830  1.00  0.00     0.105 C 
ENDBRANCH  20  22
ENDBRANCH  19  20
ENDBRANCH   7  19
TORSDOF 5
