REMARK SMILES CN(C)CCCN1c2ccccc2Sc2cccnc21
REMARK SMILES IDX 5 1 4 2 2 3 1 4 3 5 6 6 7 7 8 8 20 9 9 10 13 11 15 12 19 13
REMARK SMILES IDX 10 14 12 15 14 16 16 17 18 18 11 19 17 20
REMARK H PARENT
REMARK Flexibility Score: inf
ROOT
ATOM      1  C   UNL     1       1.438   0.058  -0.965  1.00  0.00     0.037 C 
ENDROOT
BRANCH   1   2
ATOM      2  C   UNL     1       1.798   1.080   0.124  1.00  0.00     0.085 C 
BRANCH   2   3
ATOM      3  N   UNL     1       3.138   0.952   0.726  1.00  0.00    -0.309 NA
ATOM      4  C   UNL     1       4.219   1.167  -0.229  1.00  0.00     0.104 C 
ATOM      5  C   UNL     1       3.313  -0.302   1.452  1.00  0.00     0.104 C 
ENDBRANCH   2   3
ENDBRANCH   1   2
BRANCH   1   6
ATOM      6  C   UNL     1       0.060   0.309  -1.599  1.00  0.00     0.125 C 
BRANCH   6   7
ATOM      7  N   UNL     1      -1.060  -0.023  -0.692  1.00  0.00    -0.324 N 
ATOM      8  C   UNL     1      -1.457  -1.375  -0.535  1.00  0.00     0.056 A 
ATOM      9  C   UNL     1      -1.638   1.106  -0.048  1.00  0.00     0.147 A 
ATOM     10  C   UNL     1      -0.830  -2.433  -1.232  1.00  0.00     0.027 A 
ATOM     11  C   UNL     1      -2.512  -1.742   0.328  1.00  0.00     0.036 A 
ATOM     12  C   UNL     1      -2.700   0.968   0.857  1.00  0.00     0.055 A 
ATOM     13  N   UNL     1      -1.135   2.343  -0.318  1.00  0.00    -0.238 NA
ATOM     14  C   UNL     1      -1.217  -3.771  -1.083  1.00  0.00     0.002 A 
ATOM     15  C   UNL     1      -2.898  -3.089   0.474  1.00  0.00     0.017 A 
ATOM     16  S   UNL     1      -3.443  -0.577   1.300  1.00  0.00    -0.084 SA
ATOM     17  C   UNL     1      -3.226   2.115   1.472  1.00  0.00     0.021 A 
ATOM     18  C   UNL     1      -1.660   3.428   0.291  1.00  0.00     0.113 A 
ATOM     19  C   UNL     1      -2.254  -4.101  -0.228  1.00  0.00     0.001 A 
ATOM     20  C   UNL     1      -2.701   3.366   1.189  1.00  0.00     0.021 A 
ENDBRANCH   6   7
ENDBRANCH   1   6
TORSDOF 4
