REMARK SMILES O=C(NC1CCN(CCc2c[nH]c3ccccc23)CC1)c1ccccc1
REMARK SMILES IDX 4 1 5 2 6 3 7 4 19 5 20 6 3 7 1 8 2 9 21 11 22 12 26 13
REMARK SMILES IDX 23 14 25 15 24 16 8 17 9 18 10 19 11 20 18 21 12 22 13 23
REMARK SMILES IDX 17 24 14 26 16 27 15 28
REMARK H PARENT 3 10 12 25
REMARK Flexibility Score: inf
ROOT
ATOM      1  C   UNL     1       1.794  -0.734  -0.834  1.00  0.00     0.084 C 
ATOM      2  C   UNL     1       1.343   0.695  -1.167  1.00  0.00     0.040 C 
ATOM      3  C   UNL     1      -0.130   0.897  -0.828  1.00  0.00     0.086 C 
ATOM      4  N   UNL     1      -0.361   0.737   0.609  1.00  0.00    -0.303 NA
ATOM      5  C   UNL     1       0.408  -0.332   1.249  1.00  0.00     0.086 C 
ATOM      6  C   UNL     1       0.942  -1.374   0.269  1.00  0.00     0.040 C 
ENDROOT
BRANCH   1   7
ATOM      7  N   UNL     1       3.211  -0.745  -0.481  1.00  0.00    -0.349 N 
ATOM      8  O   UNL     1       3.972  -0.868  -2.645  1.00  0.00    -0.269 OA
ATOM      9  C   UNL     1       4.197  -0.743  -1.446  1.00  0.00     0.251 C 
ATOM     10  H   UNL     1       3.461  -0.620   0.489  1.00  0.00     0.164 HD
BRANCH   9  11
ATOM     11  C   UNL     1       5.598  -0.608  -0.961  1.00  0.00     0.039 A 
ATOM     12  C   UNL     1       5.922   0.141   0.177  1.00  0.00     0.014 A 
ATOM     13  C   UNL     1       6.616  -1.230  -1.695  1.00  0.00     0.014 A 
ATOM     14  C   UNL     1       7.254   0.240   0.590  1.00  0.00     0.001 A 
ATOM     15  C   UNL     1       7.944  -1.129  -1.278  1.00  0.00     0.001 A 
ATOM     16  C   UNL     1       8.261  -0.398  -0.134  1.00  0.00     0.000 A 
ENDBRANCH   9  11
ENDBRANCH   1   7
BRANCH   4  17
ATOM     17  C   UNL     1      -1.783   0.772   0.982  1.00  0.00     0.089 C 
BRANCH  17  18
ATOM     18  C   UNL     1      -2.635  -0.439   0.555  1.00  0.00     0.053 C 
BRANCH  18  19
ATOM     19  C   UNL     1      -4.057  -0.314   1.009  1.00  0.00    -0.021 A 
ATOM     20  C   UNL     1      -4.610  -0.884   2.140  1.00  0.00     0.087 A 
ATOM     21  C   UNL     1      -5.104   0.416   0.358  1.00  0.00     0.003 A 
ATOM     22  N   UNL     1      -5.932  -0.531   2.197  1.00  0.00    -0.361 N 
ATOM     23  C   UNL     1      -6.260   0.263   1.123  1.00  0.00     0.046 A 
ATOM     24  C   UNL     1      -5.173   1.196  -0.815  1.00  0.00     0.010 A 
ATOM     25  H   UNL     1      -6.579  -0.810   2.921  1.00  0.00     0.166 HD
ATOM     26  C   UNL     1      -7.483   0.850   0.776  1.00  0.00     0.026 A 
ATOM     27  C   UNL     1      -6.387   1.791  -1.177  1.00  0.00     0.001 A 
ATOM     28  C   UNL     1      -7.524   1.619  -0.391  1.00  0.00     0.002 A 
ENDBRANCH  18  19
ENDBRANCH  17  18
ENDBRANCH   4  17
TORSDOF 5
