REMARK SMILES Nc1nc(-n2cc(C(=O)O)c(=O)c3cc(F)c(N4CC(O)C4)c(Cl)c32)c(F)cc1F
REMARK SMILES IDX 5 1 6 2 7 3 11 4 12 5 13 6 14 7 15 8 16 9 17 10 23 11 24 12
REMARK SMILES IDX 25 13 4 14 2 15 3 16 29 17 28 18 30 19 26 20 27 21 1 22 8 25
REMARK SMILES IDX 9 26 10 27 18 29 19 30 22 31 20 32 21 33
REMARK H PARENT 1 23 1 24 10 28 21 34
REMARK Flexibility Score: inf
ROOT
ATOM      1  N   UNL     1      -1.505  -0.524   0.190  1.00  0.00    -0.296 N 
ATOM      2  C   UNL     1      -2.498  -1.420   0.591  1.00  0.00     0.113 C 
ATOM      3  C   UNL     1      -2.363  -2.743   0.751  1.00  0.00     0.124 C 
ATOM      4  C   UNL     1      -1.049  -3.324   0.419  1.00  0.00     0.204 C 
ATOM      5  O   UNL     1      -0.877  -4.526   0.253  1.00  0.00    -0.288 OA
ATOM      6  C   UNL     1       0.089  -2.383   0.274  1.00  0.00     0.052 A 
ATOM      7  C   UNL     1       1.376  -2.917   0.216  1.00  0.00     0.056 A 
ATOM      8  C   UNL     1       2.462  -2.062   0.157  1.00  0.00     0.148 A 
ATOM      9  F   UNL     1       3.688  -2.606   0.088  1.00  0.00    -0.205 F 
ATOM     10  C   UNL     1       2.319  -0.664   0.201  1.00  0.00     0.094 A 
ATOM     11  C   UNL     1       1.006  -0.136   0.284  1.00  0.00     0.092 A 
ATOM     12  Cl  UNL     1       0.798   1.559   0.649  1.00  0.00    -0.080 Cl
ATOM     13  C   UNL     1      -0.138  -0.988   0.233  1.00  0.00     0.079 A 
ENDROOT
BRANCH   1  14
ATOM     14  C   UNL     1      -1.961   0.682  -0.447  1.00  0.00     0.176 A 
ATOM     15  C   UNL     1      -3.437   2.491  -0.486  1.00  0.00     0.162 A 
ATOM     16  N   UNL     1      -2.992   1.371   0.117  1.00  0.00    -0.207 NA
ATOM     17  C   UNL     1      -2.892   2.954  -1.685  1.00  0.00     0.168 A 
ATOM     18  C   UNL     1      -1.870   2.249  -2.295  1.00  0.00     0.086 A 
ATOM     19  F   UNL     1      -3.363   4.070  -2.260  1.00  0.00    -0.203 F 
ATOM     20  C   UNL     1      -1.409   1.099  -1.672  1.00  0.00     0.169 A 
ATOM     21  F   UNL     1      -0.450   0.386  -2.283  1.00  0.00    -0.203 F 
BRANCH  15  22
ATOM     22  N   UNL     1      -4.486   3.188   0.137  1.00  0.00    -0.381 N 
ATOM     23  H   UNL     1      -4.181   4.138   0.332  1.00  0.00     0.158 HD
ATOM     24  H   UNL     1      -5.266   3.264  -0.512  1.00  0.00     0.158 HD
ENDBRANCH  15  22
ENDBRANCH   1  14
BRANCH   3  25
ATOM     25  C   UNL     1      -3.532  -3.520   1.173  1.00  0.00     0.341 C 
ATOM     26  O   UNL     1      -4.697  -3.241   0.945  1.00  0.00    -0.246 OA
BRANCH  25  27
ATOM     27  O   UNL     1      -3.207  -4.581   1.927  1.00  0.00    -0.477 OA
ATOM     28  H   UNL     1      -4.061  -5.016   2.129  1.00  0.00     0.297 HD
ENDBRANCH  25  27
ENDBRANCH   3  25
BRANCH  10  29
ATOM     29  N   UNL     1       3.528   0.085   0.165  1.00  0.00    -0.363 N 
ATOM     30  C   UNL     1       3.819   1.190  -0.711  1.00  0.00     0.150 C 
ATOM     31  C   UNL     1       4.070   0.791   1.303  1.00  0.00     0.150 C 
ATOM     32  C   UNL     1       4.894   1.621   0.304  1.00  0.00     0.153 C 
BRANCH  32  33
ATOM     33  O   UNL     1       5.019   3.034   0.573  1.00  0.00    -0.389 OA
ATOM     34  H   UNL     1       5.469   3.398  -0.208  1.00  0.00     0.211 HD
ENDBRANCH  32  33
ENDBRANCH  10  29
TORSDOF 6
