REMARK SMILES Cc1ccc(-c2ccc(C)cn2)nc1
REMARK SMILES IDX 1 1 2 2 3 3 4 4 5 5 13 6 14 7 6 8 7 9 12 10 8 11 11 12 9 13
REMARK SMILES IDX 10 14
REMARK H PARENT
REMARK Flexibility Score: inf
ROOT
ATOM      1  C   UNL     1       5.007  -0.211  -0.178  1.00  0.00     0.046 C 
ATOM      2  C   UNL     1       3.515  -0.142  -0.116  1.00  0.00    -0.033 A 
ATOM      3  C   UNL     1       2.808  -0.631   0.979  1.00  0.00     0.007 A 
ATOM      4  C   UNL     1       1.415  -0.574   0.982  1.00  0.00     0.031 A 
ATOM      5  C   UNL     1       0.741  -0.038  -0.117  1.00  0.00     0.089 A 
ATOM      6  N   UNL     1       1.423   0.429  -1.200  1.00  0.00    -0.254 NA
ATOM      7  C   UNL     1       2.775   0.363  -1.176  1.00  0.00     0.115 A 
ENDROOT
BRANCH   5   8
ATOM      8  C   UNL     1      -0.740   0.045  -0.171  1.00  0.00     0.089 A 
ATOM      9  C   UNL     1      -1.415   0.566  -1.276  1.00  0.00     0.031 A 
ATOM     10  N   UNL     1      -1.422  -0.412   0.917  1.00  0.00    -0.254 NA
ATOM     11  C   UNL     1      -2.808   0.618  -1.274  1.00  0.00     0.007 A 
ATOM     12  C   UNL     1      -2.774  -0.348   0.893  1.00  0.00     0.115 A 
ATOM     13  C   UNL     1      -3.515   0.145  -0.172  1.00  0.00    -0.033 A 
ATOM     14  C   UNL     1      -5.008   0.209  -0.125  1.00  0.00     0.046 C 
ENDBRANCH   5   8
TORSDOF 1
