REMARK SMILES O=C(c1cc(Cc2n[nH]c(=O)c3ccccc23)ccc1F)N1CCn2nc(C(F)(F)F)nc2C1
REMARK SMILES IDX 21 1 20 2 19 3 18 4 5 5 4 6 3 7 2 8 1 9 22 10 23 11 34 12
REMARK SMILES IDX 24 13 33 14 25 15 32 16 26 17 27 18 28 19 29 20 30 21 31 22
REMARK SMILES IDX 6 23 7 24 8 25 17 26 9 27 12 28 16 29 10 30 13 32 15 33
REMARK SMILES IDX 11 34 14 35
REMARK H PARENT 9 31
REMARK Flexibility Score: inf
ROOT
ATOM      1  F   UNL     1       1.845   1.751  -1.030  1.00  0.00    -0.206 F 
ATOM      2  C   UNL     1       0.759   1.054  -0.664  1.00  0.00     0.135 A 
ATOM      3  C   UNL     1      -0.333   1.742  -0.144  1.00  0.00     0.040 A 
ATOM      4  C   UNL     1      -1.482   1.042   0.230  1.00  0.00     0.007 A 
ATOM      5  C   UNL     1      -1.554  -0.352   0.069  1.00  0.00    -0.041 A 
ATOM      6  C   UNL     1      -0.439  -1.033  -0.448  1.00  0.00     0.021 A 
ATOM      7  C   UNL     1       0.724  -0.331  -0.790  1.00  0.00     0.076 A 
ENDROOT
BRANCH   7   8
ATOM      8  C   UNL     1       1.864  -1.072  -1.364  1.00  0.00     0.257 C 
ATOM      9  O   UNL     1       1.632  -1.809  -2.320  1.00  0.00    -0.269 OA
BRANCH   8  10
ATOM     10  N   UNL     1       3.139  -0.929  -0.810  1.00  0.00    -0.329 N 
ATOM     11  C   UNL     1       4.228  -1.687  -1.440  1.00  0.00     0.144 C 
ATOM     12  C   UNL     1       3.338  -0.556   0.601  1.00  0.00     0.197 C 
ATOM     13  C   UNL     1       5.544  -0.924  -1.377  1.00  0.00     0.168 C 
ATOM     14  C   UNL     1       4.757  -0.204   0.875  1.00  0.00     0.147 A 
ATOM     15  N   UNL     1       5.742  -0.408  -0.043  1.00  0.00    -0.246 N 
ATOM     16  N   UNL     1       5.293   0.306   1.963  1.00  0.00    -0.206 NA
ATOM     17  N   UNL     1       6.947  -0.039   0.415  1.00  0.00    -0.146 NA
ATOM     18  C   UNL     1       6.648   0.404   1.657  1.00  0.00     0.255 A 
BRANCH  18  19
ATOM     19  C   UNL     1       7.676   0.954   2.625  1.00  0.00     0.453 C 
ATOM     20  F   UNL     1       8.242   2.110   2.177  1.00  0.00    -0.163 F 
ATOM     21  F   UNL     1       7.147   1.240   3.848  1.00  0.00    -0.163 F 
ATOM     22  F   UNL     1       8.698   0.081   2.849  1.00  0.00    -0.163 F 
ENDBRANCH  18  19
ENDBRANCH   8  10
ENDBRANCH   7   8
BRANCH   5  23
ATOM     23  C   UNL     1      -2.804  -1.120   0.441  1.00  0.00     0.094 C 
BRANCH  23  24
ATOM     24  C   UNL     1      -4.016  -0.718  -0.392  1.00  0.00     0.073 C 
ATOM     25  N   UNL     1      -4.053  -1.158  -1.617  1.00  0.00    -0.177 NA
ATOM     26  C   UNL     1      -5.089   0.134   0.191  1.00  0.00     0.011 A 
ATOM     27  N   UNL     1      -5.112  -0.822  -2.398  1.00  0.00    -0.243 N 
ATOM     28  C   UNL     1      -6.160   0.458  -0.641  1.00  0.00     0.050 A 
ATOM     29  C   UNL     1      -5.076   0.622   1.504  1.00  0.00     0.011 A 
ATOM     30  C   UNL     1      -6.175  -0.038  -2.027  1.00  0.00     0.272 C 
ATOM     31  H   UNL     1      -5.096  -1.161  -3.356  1.00  0.00     0.194 HD
ATOM     32  C   UNL     1      -7.216   1.253  -0.174  1.00  0.00     0.014 A 
ATOM     33  C   UNL     1      -6.130   1.417   1.971  1.00  0.00     0.001 A 
ATOM     34  O   UNL     1      -7.089   0.243  -2.796  1.00  0.00    -0.267 OA
ATOM     35  C   UNL     1      -7.199   1.730   1.134  1.00  0.00     0.001 A 
ENDBRANCH  23  24
ENDBRANCH   5  23
TORSDOF 5
