REMARK SMILES Nc1nc(Cl)nc2c1ncn2[C@@H]1O[C@H](CO)[C@@H](O)[C@@H]1F
REMARK SMILES IDX 12 1 13 2 14 3 17 4 19 5 20 6 11 7 2 8 3 9 8 10 4 11 7 12
REMARK SMILES IDX 9 13 5 14 6 15 10 16 1 17 15 20 16 21 18 23
REMARK H PARENT 1 18 1 19 16 22 18 24
REMARK Flexibility Score: inf
ROOT
ATOM      1  C   UNL     1      -0.709  -0.870  -0.224  1.00  0.00     0.259 C 
ATOM      2  O   UNL     1      -1.774  -0.180  -0.926  1.00  0.00    -0.346 OA
ATOM      3  C   UNL     1      -2.907  -0.126  -0.032  1.00  0.00     0.178 C 
ATOM      4  C   UNL     1      -2.324  -0.153   1.374  1.00  0.00     0.184 C 
ATOM      5  C   UNL     1      -1.180  -1.129   1.202  1.00  0.00     0.247 C 
ATOM      6  F   UNL     1      -0.227  -0.890   2.134  1.00  0.00    -0.239 F 
ENDROOT
BRANCH   1   7
ATOM      7  N   UNL     1       0.503  -0.083  -0.317  1.00  0.00    -0.285 N 
ATOM      8  C   UNL     1       3.969   0.254  -0.704  1.00  0.00     0.156 A 
ATOM      9  N   UNL     1       4.380  -1.025  -0.848  1.00  0.00    -0.199 NA
ATOM     10  C   UNL     1       2.598   0.505  -0.514  1.00  0.00     0.150 A 
ATOM     11  C   UNL     1       3.440  -1.990  -0.829  1.00  0.00     0.226 A 
ATOM     12  C   UNL     1       1.757  -0.595  -0.515  1.00  0.00     0.169 A 
ATOM     13  N   UNL     1       1.884   1.665  -0.300  1.00  0.00    -0.231 NA
ATOM     14  Cl  UNL     1       4.025  -3.588  -1.022  1.00  0.00    -0.041 Cl
ATOM     15  N   UNL     1       2.105  -1.883  -0.669  1.00  0.00    -0.198 NA
ATOM     16  C   UNL     1       0.632   1.274  -0.179  1.00  0.00     0.204 A 
BRANCH   8  17
ATOM     17  N   UNL     1       4.926   1.260  -0.727  1.00  0.00    -0.382 N 
ATOM     18  H   UNL     1       4.621   2.126  -0.299  1.00  0.00     0.158 HD
ATOM     19  H   UNL     1       5.853   0.923  -0.500  1.00  0.00     0.158 HD
ENDBRANCH   8  17
ENDBRANCH   1   7
BRANCH   3  20
ATOM     20  C   UNL     1      -3.736   1.120  -0.325  1.00  0.00     0.191 C 
BRANCH  20  21
ATOM     21  O   UNL     1      -2.908   2.281  -0.314  1.00  0.00    -0.394 OA
ATOM     22  H   UNL     1      -2.343   2.214  -1.107  1.00  0.00     0.210 HD
ENDBRANCH  20  21
ENDBRANCH   3  20
BRANCH   4  23
ATOM     23  O   UNL     1      -3.274  -0.610   2.329  1.00  0.00    -0.387 OA
ATOM     24  H   UNL     1      -2.842  -0.568   3.204  1.00  0.00     0.211 HD
ENDBRANCH   4  23
TORSDOF 5
