REMARK SMILES CCCN1C[C@H](CSC)C[C@@H]2c3cccc4[nH]cc(c34)C[C@H]21
REMARK SMILES IDX 4 1 5 2 6 3 10 4 11 5 12 6 13 7 14 8 15 9 16 10 17 11 18 12
REMARK SMILES IDX 19 13 20 14 21 15 22 16 3 18 2 19 1 20 7 21 8 22 9 23
REMARK H PARENT 17 17
REMARK Flexibility Score: inf
ROOT
ATOM      1  N   UNL     1       1.195   0.966  -0.619  1.00  0.00    -0.299 NA
ATOM      2  C   UNL     1       2.030   0.622   0.536  1.00  0.00     0.089 C 
ATOM      3  C   UNL     1       2.046  -0.877   0.862  1.00  0.00     0.014 C 
ATOM      4  C   UNL     1       0.614  -1.375   1.160  1.00  0.00     0.015 C 
ATOM      5  C   UNL     1      -0.506  -0.428   0.670  1.00  0.00     0.038 C 
ATOM      6  C   UNL     1      -1.844  -1.148   0.603  1.00  0.00    -0.034 A 
ATOM      7  C   UNL     1      -2.328  -2.078   1.535  1.00  0.00     0.005 A 
ATOM      8  C   UNL     1      -3.586  -2.678   1.371  1.00  0.00     0.002 A 
ATOM      9  C   UNL     1      -4.419  -2.369   0.284  1.00  0.00     0.027 A 
ATOM     10  C   UNL     1      -3.940  -1.420  -0.618  1.00  0.00     0.046 A 
ATOM     11  N   UNL     1      -4.474  -0.869  -1.763  1.00  0.00    -0.361 N 
ATOM     12  C   UNL     1      -3.609   0.066  -2.293  1.00  0.00     0.087 A 
ATOM     13  C   UNL     1      -2.497   0.108  -1.485  1.00  0.00    -0.021 A 
ATOM     14  C   UNL     1      -2.702  -0.827  -0.454  1.00  0.00     0.006 A 
ATOM     15  C   UNL     1      -1.252   0.927  -1.502  1.00  0.00     0.057 C 
ATOM     16  C   UNL     1      -0.084   0.215  -0.717  1.00  0.00     0.068 C 
ATOM     17  H   UNL     1      -5.379  -1.106  -2.146  1.00  0.00     0.166 HD
ENDROOT
BRANCH   1  18
ATOM     18  C   UNL     1       1.180   2.406  -0.895  1.00  0.00     0.084 C 
BRANCH  18  19
ATOM     19  C   UNL     1       0.600   3.296   0.215  1.00  0.00     0.012 C 
ATOM     20  C   UNL     1       0.453   4.735  -0.257  1.00  0.00     0.005 C 
ENDBRANCH  18  19
ENDBRANCH   1  18
BRANCH   3  21
ATOM     21  C   UNL     1       2.719  -1.740  -0.225  1.00  0.00     0.074 C 
BRANCH  21  22
ATOM     22  S   UNL     1       4.516  -1.443  -0.421  1.00  0.00    -0.165 SA
ATOM     23  C   UNL     1       5.123  -2.243   1.084  1.00  0.00     0.085 C 
ENDBRANCH  21  22
ENDBRANCH   3  21
TORSDOF 4
