REMARK SMILES Cn1cc(-c2ccc(F)c(C(F)(F)F)c2)nc1C1CCN(c2ncnc3[nH]ncc23)CC1
REMARK SMILES IDX 1 1 2 2 3 3 4 4 16 5 17 6 18 7 19 8 32 9 20 10 31 11 21 12
REMARK SMILES IDX 22 13 30 14 23 15 29 16 26 17 24 18 28 19 27 20 25 21 5 23
REMARK SMILES IDX 6 24 15 25 7 26 10 27 8 28 9 29 11 30 12 31 13 32 14 33
REMARK H PARENT 27 22
REMARK Flexibility Score: inf
ROOT
ATOM      1  C   UNL     1       1.843  -3.795   0.813  1.00  0.00     0.151 C 
ATOM      2  N   UNL     1       1.883  -2.372   0.574  1.00  0.00    -0.337 N 
ATOM      3  C   UNL     1       3.022  -1.613   0.534  1.00  0.00     0.115 A 
ATOM      4  C   UNL     1       2.594  -0.327   0.282  1.00  0.00     0.089 A 
ATOM      5  N   UNL     1       1.224  -0.300   0.168  1.00  0.00    -0.233 NA
ATOM      6  C   UNL     1       0.809  -1.540   0.347  1.00  0.00     0.112 A 
ENDROOT
BRANCH   6   7
ATOM      7  C   UNL     1      -0.629  -1.982   0.315  1.00  0.00     0.059 C 
ATOM      8  C   UNL     1      -1.480  -1.116   1.259  1.00  0.00     0.033 C 
ATOM      9  C   UNL     1      -1.162  -1.966  -1.128  1.00  0.00     0.033 C 
ATOM     10  C   UNL     1      -2.082   0.092   0.544  1.00  0.00     0.119 C 
ATOM     11  C   UNL     1      -2.656  -1.660  -1.163  1.00  0.00     0.119 C 
ATOM     12  N   UNL     1      -2.896  -0.329  -0.604  1.00  0.00    -0.356 N 
BRANCH  12  13
ATOM     13  C   UNL     1      -4.199   0.149  -0.696  1.00  0.00     0.143 A 
ATOM     14  C   UNL     1      -4.569   1.488  -0.469  1.00  0.00     0.081 A 
ATOM     15  N   UNL     1      -5.197  -0.698  -1.083  1.00  0.00    -0.219 NA
ATOM     16  C   UNL     1      -3.950   2.714  -0.138  1.00  0.00     0.149 A 
ATOM     17  C   UNL     1      -5.902   1.822  -0.614  1.00  0.00     0.160 A 
ATOM     18  C   UNL     1      -6.461  -0.237  -1.187  1.00  0.00     0.226 A 
ATOM     19  N   UNL     1      -4.813   3.734  -0.041  1.00  0.00    -0.181 NA
ATOM     20  N   UNL     1      -5.994   3.157  -0.341  1.00  0.00    -0.261 N 
ATOM     21  N   UNL     1      -6.911   1.009  -0.959  1.00  0.00    -0.217 NA
ATOM     22  H   UNL     1      -6.835   3.723  -0.350  1.00  0.00     0.192 HD
ENDBRANCH  12  13
ENDBRANCH   6   7
BRANCH   4  23
ATOM     23  C   UNL     1       3.423   0.860   0.134  1.00  0.00     0.002 A 
ATOM     24  C   UNL     1       2.855   2.034  -0.382  1.00  0.00     0.013 A 
ATOM     25  C   UNL     1       4.778   0.872   0.500  1.00  0.00     0.026 A 
ATOM     26  C   UNL     1       3.620   3.191  -0.534  1.00  0.00     0.040 A 
ATOM     27  C   UNL     1       5.556   2.034   0.351  1.00  0.00     0.092 A 
ATOM     28  C   UNL     1       4.960   3.180  -0.168  1.00  0.00     0.135 A 
ATOM     29  F   UNL     1       5.680   4.297  -0.318  1.00  0.00    -0.206 F 
BRANCH  27  30
ATOM     30  C   UNL     1       6.999   2.079   0.745  1.00  0.00     0.419 C 
ATOM     31  F   UNL     1       7.249   2.966   1.748  1.00  0.00    -0.166 F 
ATOM     32  F   UNL     1       7.824   2.419  -0.284  1.00  0.00    -0.166 F 
ATOM     33  F   UNL     1       7.463   0.878   1.201  1.00  0.00    -0.166 F 
ENDBRANCH  27  30
ENDBRANCH   4  23
TORSDOF 4
