REMARK SMILES O=C(Nc1ccc(C[C@@H]2CC[C@H]([C@H](O)c3ccccc3)N2)cc1)[C@@H]1CCc2nccc(=O)n21
REMARK SMILES IDX 8 1 7 2 4 3 5 4 23 5 6 6 22 7 3 8 1 9 2 10 24 12 25 13 33 14
REMARK SMILES IDX 26 15 27 16 31 17 28 18 30 19 32 20 29 21 9 22 10 23 21 24
REMARK SMILES IDX 11 25 12 26 13 28 14 29 15 31 16 32 20 33 17 34 19 35 18 36
REMARK H PARENT 3 11 21 27 14 30
REMARK Flexibility Score: inf
ROOT
ATOM      1  C   UNL     1      -1.436  -0.308   2.473  1.00  0.00     0.054 C 
ENDROOT
BRANCH   1   2
ATOM      2  C   UNL     1      -0.017  -0.017   2.045  1.00  0.00    -0.046 A 
ATOM      3  C   UNL     1       2.636   0.511   1.227  1.00  0.00     0.041 A 
ATOM      4  C   UNL     1       1.860   1.508   1.833  1.00  0.00     0.026 A 
ATOM      5  C   UNL     1       2.073  -0.750   1.035  1.00  0.00     0.026 A 
ATOM      6  C   UNL     1       0.546   1.248   2.237  1.00  0.00     0.006 A 
ATOM      7  C   UNL     1       0.759  -1.012   1.441  1.00  0.00     0.006 A 
BRANCH   3   8
ATOM      8  N   UNL     1       3.950   0.860   0.848  1.00  0.00    -0.324 N 
ATOM      9  O   UNL     1       4.746  -1.132  -0.070  1.00  0.00    -0.272 OA
ATOM     10  C   UNL     1       4.902   0.043   0.251  1.00  0.00     0.247 C 
ATOM     11  H   UNL     1       4.231   1.804   1.081  1.00  0.00     0.170 HD
BRANCH  10  12
ATOM     12  C   UNL     1       6.204   0.803  -0.068  1.00  0.00     0.182 C 
ATOM     13  C   UNL     1       6.071   1.548  -1.396  1.00  0.00     0.044 C 
ATOM     14  N   UNL     1       7.292  -0.106  -0.317  1.00  0.00    -0.284 N 
ATOM     15  C   UNL     1       6.543   0.533  -2.444  1.00  0.00     0.078 C 
ATOM     16  C   UNL     1       7.508  -0.304  -1.662  1.00  0.00     0.112 C 
ATOM     17  C   UNL     1       8.036  -0.725   0.643  1.00  0.00     0.254 C 
ATOM     18  N   UNL     1       8.408  -1.085  -2.156  1.00  0.00    -0.243 NA
ATOM     19  C   UNL     1       9.055  -1.644   0.100  1.00  0.00     0.092 C 
ATOM     20  O   UNL     1       7.917  -0.542   1.849  1.00  0.00    -0.269 OA
ATOM     21  C   UNL     1       9.169  -1.758  -1.230  1.00  0.00     0.119 C 
ENDBRANCH  10  12
ENDBRANCH   3   8
ENDBRANCH   1   2
BRANCH   1  22
ATOM     22  C   UNL     1      -2.411  -0.414   1.290  1.00  0.00     0.058 C 
ATOM     23  C   UNL     1      -2.623   0.903   0.541  1.00  0.00     0.021 C 
ATOM     24  N   UNL     1      -3.775  -0.788   1.725  1.00  0.00    -0.308 NA
ATOM     25  C   UNL     1      -4.061   0.854   0.033  1.00  0.00     0.023 C 
ATOM     26  C   UNL     1      -4.616  -0.473   0.538  1.00  0.00     0.087 C 
ATOM     27  H   UNL     1      -4.049  -0.170   2.493  1.00  0.00     0.123 HD
BRANCH  26  28
ATOM     28  C   UNL     1      -6.123  -0.454   0.893  1.00  0.00     0.161 C 
BRANCH  28  29
ATOM     29  O   UNL     1      -6.451  -1.685   1.552  1.00  0.00    -0.387 OA
ATOM     30  H   UNL     1      -5.624  -1.964   1.993  1.00  0.00     0.211 HD
ENDBRANCH  28  29
BRANCH  28  31
ATOM     31  C   UNL     1      -7.008  -0.283  -0.322  1.00  0.00    -0.018 A 
ATOM     32  C   UNL     1      -7.565   0.970  -0.620  1.00  0.00     0.006 A 
ATOM     33  C   UNL     1      -7.266  -1.355  -1.189  1.00  0.00     0.006 A 
ATOM     34  C   UNL     1      -8.359   1.144  -1.755  1.00  0.00     0.000 A 
ATOM     35  C   UNL     1      -8.060  -1.181  -2.323  1.00  0.00     0.000 A 
ATOM     36  C   UNL     1      -8.605   0.069  -2.607  1.00  0.00     0.000 A 
ENDBRANCH  28  31
ENDBRANCH  26  28
ENDBRANCH   1  22
TORSDOF 7
