REMARK SMILES CC(C)c1ccc2oc3nc(N)c(C(=O)O)cc3c(=O)c2c1
REMARK SMILES IDX 4 1 5 2 6 3 7 4 8 5 9 6 10 7 11 8 13 9 17 10 18 11 19 12
REMARK SMILES IDX 20 13 21 14 22 15 2 16 1 17 3 18 14 19 15 20 16 21 12 23
REMARK H PARENT 16 22 12 24 12 25
REMARK Flexibility Score: inf
ROOT
ATOM      1  C   UNL     1      -2.911  -0.035  -0.143  1.00  0.00    -0.044 A 
ATOM      2  C   UNL     1      -2.732  -1.293  -0.741  1.00  0.00     0.008 A 
ATOM      3  C   UNL     1      -1.450  -1.797  -0.981  1.00  0.00     0.048 A 
ATOM      4  C   UNL     1      -0.327  -1.051  -0.627  1.00  0.00     0.140 A 
ATOM      5  O   UNL     1       0.895  -1.613  -0.895  1.00  0.00    -0.437 OA
ATOM      6  C   UNL     1       2.027  -0.908  -0.561  1.00  0.00     0.232 A 
ATOM      7  N   UNL     1       3.183  -1.542  -0.863  1.00  0.00    -0.195 NA
ATOM      8  C   UNL     1       4.355  -0.931  -0.580  1.00  0.00     0.142 A 
ATOM      9  C   UNL     1       4.406   0.333   0.028  1.00  0.00     0.103 A 
ATOM     10  C   UNL     1       3.200   0.975   0.335  1.00  0.00     0.037 A 
ATOM     11  C   UNL     1       1.999   0.339   0.033  1.00  0.00     0.086 A 
ATOM     12  C   UNL     1       0.705   0.960   0.329  1.00  0.00     0.202 C 
ATOM     13  O   UNL     1       0.638   2.063   0.854  1.00  0.00    -0.288 OA
ATOM     14  C   UNL     1      -0.495   0.196  -0.034  1.00  0.00     0.066 A 
ATOM     15  C   UNL     1      -1.774   0.708   0.210  1.00  0.00     0.020 A 
ENDROOT
BRANCH   1  16
ATOM     16  C   UNL     1      -4.295   0.532   0.127  1.00  0.00     0.013 C 
ATOM     17  C   UNL     1      -5.079  -0.345   1.107  1.00  0.00     0.012 C 
ATOM     18  C   UNL     1      -5.080   0.738  -1.170  1.00  0.00     0.012 C 
ENDBRANCH   1  16
BRANCH   9  19
ATOM     19  C   UNL     1       5.707   0.978   0.321  1.00  0.00     0.339 C 
ATOM     20  O   UNL     1       6.806   0.550   0.020  1.00  0.00    -0.246 OA
BRANCH  19  21
ATOM     21  O   UNL     1       5.573   2.139   0.985  1.00  0.00    -0.478 OA
ATOM     22  H   UNL     1       6.490   2.463   1.116  1.00  0.00     0.297 HD
ENDBRANCH  19  21
ENDBRANCH   9  19
BRANCH   8  23
ATOM     23  N   UNL     1       5.502  -1.672  -0.900  1.00  0.00    -0.383 N 
ATOM     24  H   UNL     1       6.137  -1.096  -1.453  1.00  0.00     0.158 HD
ATOM     25  H   UNL     1       6.022  -1.879  -0.049  1.00  0.00     0.158 HD
ENDBRANCH   8  23
TORSDOF 4
