REMARK SMILES CN1CC[C@]23c4c5ccc(O)c4O[C@H]2[C@@H](O)C=C[C@H]3[C@H]1C5
REMARK SMILES IDX 1 1 2 2 3 3 4 4 5 5 6 6 7 7 8 8 9 9 10 10 12 11 13 12 14 13
REMARK SMILES IDX 15 14 17 15 18 16 19 17 20 18 21 19 16 20 11 22
REMARK H PARENT 16 21 11 23
REMARK Flexibility Score: inf
ROOT
ATOM      1  C   UNL     1       3.913  -0.968   0.316  1.00  0.00     0.105 C 
ATOM      2  N   UNL     1       2.523  -0.796  -0.097  1.00  0.00    -0.302 NA
ATOM      3  C   UNL     1       2.427  -0.103  -1.380  1.00  0.00     0.085 C 
ATOM      4  C   UNL     1       0.974   0.091  -1.843  1.00  0.00     0.032 C 
ATOM      5  C   UNL     1       0.036   0.549  -0.700  1.00  0.00     0.048 C 
ATOM      6  C   UNL     1      -0.806  -0.608  -0.252  1.00  0.00     0.012 A 
ATOM      7  C   UNL     1      -0.486  -1.555   0.707  1.00  0.00    -0.039 A 
ATOM      8  C   UNL     1      -1.426  -2.560   0.960  1.00  0.00     0.008 A 
ATOM      9  C   UNL     1      -2.663  -2.566   0.285  1.00  0.00     0.050 A 
ATOM     10  C   UNL     1      -2.978  -1.544  -0.609  1.00  0.00     0.158 A 
ATOM     11  C   UNL     1      -2.044  -0.563  -0.849  1.00  0.00     0.165 A 
ATOM     12  O   UNL     1      -2.229   0.559  -1.611  1.00  0.00    -0.482 OA
ATOM     13  C   UNL     1      -1.126   1.444  -1.199  1.00  0.00     0.217 C 
ATOM     14  C   UNL     1      -1.594   2.522  -0.172  1.00  0.00     0.178 C 
ATOM     15  C   UNL     1      -1.136   2.330   1.250  1.00  0.00     0.004 C 
ATOM     16  C   UNL     1      -0.010   1.671   1.567  1.00  0.00    -0.022 C 
ATOM     17  C   UNL     1       0.854   1.029   0.507  1.00  0.00     0.044 C 
ATOM     18  C   UNL     1       1.685  -0.215   0.986  1.00  0.00     0.068 C 
ATOM     19  C   UNL     1       0.771  -1.367   1.517  1.00  0.00     0.055 C 
ENDROOT
BRANCH  14  20
ATOM     20  O   UNL     1      -3.008   2.696  -0.207  1.00  0.00    -0.385 OA
ATOM     21  H   UNL     1      -3.256   3.316   0.496  1.00  0.00     0.211 HD
ENDBRANCH  14  20
BRANCH  10  22
ATOM     22  O   UNL     1      -4.206  -1.506  -1.194  1.00  0.00    -0.504 OA
ATOM     23  H   UNL     1      -4.221  -0.669  -1.698  1.00  0.00     0.293 HD
ENDBRANCH  10  22
TORSDOF 2
