REMARK SMILES CCOC(=O)c1ncn2c1CN(C)C(=O)c1cc(F)ccc1-2
REMARK SMILES IDX 4 1 5 2 3 3 2 4 1 5 6 6 7 7 10 8 8 9 9 10 11 11 22 12 12 13
REMARK SMILES IDX 16 14 21 15 13 16 14 17 17 18 20 19 15 20 18 21 19 22
REMARK H PARENT
REMARK Flexibility Score: inf
ROOT
ATOM      1  C   UNL     1       2.709  -0.559  -1.178  1.00  0.00     0.358 C 
ATOM      2  O   UNL     1       3.634  -0.621  -1.979  1.00  0.00    -0.244 OA
ENDROOT
BRANCH   1   3
ATOM      3  O   UNL     1       2.816  -0.944   0.130  1.00  0.00    -0.461 OA
BRANCH   3   4
ATOM      4  C   UNL     1       4.096  -1.457   0.529  1.00  0.00     0.230 C 
ATOM      5  C   UNL     1       5.002  -0.320   0.959  1.00  0.00     0.049 C 
ENDBRANCH   3   4
ENDBRANCH   1   3
BRANCH   1   6
ATOM      6  C   UNL     1       1.366  -0.071  -1.522  1.00  0.00     0.171 A 
ATOM      7  N   UNL     1       1.013   0.213  -2.831  1.00  0.00    -0.229 NA
ATOM      8  C   UNL     1       0.288   0.213  -0.690  1.00  0.00     0.077 A 
ATOM      9  C   UNL     1      -0.237   0.604  -2.792  1.00  0.00     0.205 A 
ATOM     10  N   UNL     1      -0.753   0.582  -1.519  1.00  0.00    -0.300 N 
ATOM     11  C   UNL     1       0.131   0.238   0.775  1.00  0.00     0.176 C 
ATOM     12  C   UNL     1      -2.072   0.936  -1.129  1.00  0.00     0.060 A 
ATOM     13  N   UNL     1      -0.798  -0.810   1.118  1.00  0.00    -0.336 N 
ATOM     14  C   UNL     1      -2.689   0.399   0.023  1.00  0.00     0.067 A 
ATOM     15  C   UNL     1      -2.777   1.860  -1.928  1.00  0.00     0.030 A 
ATOM     16  C   UNL     1      -0.279  -1.940   1.870  1.00  0.00     0.147 C 
ATOM     17  C   UNL     1      -2.156  -0.718   0.863  1.00  0.00     0.256 C 
ATOM     18  C   UNL     1      -3.990   0.819   0.355  1.00  0.00     0.055 A 
ATOM     19  C   UNL     1      -4.063   2.267  -1.573  1.00  0.00     0.041 A 
ATOM     20  O   UNL     1      -2.966  -1.531   1.307  1.00  0.00    -0.269 OA
ATOM     21  C   UNL     1      -4.656   1.747  -0.433  1.00  0.00     0.124 A 
ATOM     22  F   UNL     1      -5.892   2.136  -0.097  1.00  0.00    -0.207 F 
ENDBRANCH   1   6
TORSDOF 3
