REMARK SMILES Cc1c(Cc2ccccc2)nnc(N2CCN(c3cnc(C(C)(C)O)cn3)[C@H](C)C2)c1C
REMARK SMILES IDX 29 1 28 2 30 3 14 4 15 5 16 6 17 7 18 8 19 9 27 10 20 11
REMARK SMILES IDX 26 12 21 13 22 14 23 15 24 16 25 17 13 19 12 20 31 21 11 22
REMARK SMILES IDX 2 23 32 24 3 25 1 26 4 27 5 28 6 29 10 30 7 31 9 32 8 33
REMARK H PARENT 25 18
REMARK Flexibility Score: inf
ROOT
ATOM      1  C   UNL     1       1.084   1.209   1.358  1.00  0.00     0.033 C 
ATOM      2  C   UNL     1       1.480   1.591  -0.073  1.00  0.00     0.100 C 
ATOM      3  C   UNL     1       0.262   2.012  -0.952  1.00  0.00     0.143 C 
ATOM      4  N   UNL     1      -0.473   0.918  -1.630  1.00  0.00    -0.351 N 
ATOM      5  C   UNL     1       0.414  -0.095  -2.230  1.00  0.00     0.139 C 
ATOM      6  C   UNL     1       1.493  -0.608  -1.254  1.00  0.00     0.140 C 
ATOM      7  N   UNL     1       2.279   0.508  -0.714  1.00  0.00    -0.349 N 
ENDROOT
BRANCH   7   8
ATOM      8  C   UNL     1       3.564   0.322  -0.216  1.00  0.00     0.147 A 
ATOM      9  C   UNL     1       4.279  -0.877  -0.308  1.00  0.00     0.158 A 
ATOM     10  N   UNL     1       4.182   1.378   0.362  1.00  0.00    -0.236 NA
ATOM     11  N   UNL     1       5.548  -1.070   0.152  1.00  0.00    -0.253 NA
ATOM     12  C   UNL     1       5.447   1.203   0.823  1.00  0.00     0.140 A 
ATOM     13  C   UNL     1       6.135   0.000   0.734  1.00  0.00     0.090 A 
BRANCH  13  14
ATOM     14  C   UNL     1       7.563  -0.119   1.248  1.00  0.00     0.102 C 
ATOM     15  C   UNL     1       8.534   0.522   0.252  1.00  0.00     0.049 C 
ATOM     16  C   UNL     1       7.975  -1.574   1.510  1.00  0.00     0.049 C 
BRANCH  14  17
ATOM     17  O   UNL     1       7.693   0.588   2.492  1.00  0.00    -0.384 OA
ATOM     18  H   UNL     1       7.138   0.122   3.143  1.00  0.00     0.211 HD
ENDBRANCH  14  17
ENDBRANCH  13  14
ENDBRANCH   7   8
BRANCH   4  19
ATOM     19  C   UNL     1      -1.588   0.401  -0.961  1.00  0.00     0.154 A 
ATOM     20  N   UNL     1      -1.662   0.494   0.378  1.00  0.00    -0.132 NA
ATOM     21  C   UNL     1      -2.647  -0.197  -1.666  1.00  0.00    -0.002 A 
ATOM     22  N   UNL     1      -2.711  -0.033   1.085  1.00  0.00    -0.153 NA
ATOM     23  C   UNL     1      -3.711  -0.797  -0.944  1.00  0.00    -0.021 A 
ATOM     24  C   UNL     1      -2.680  -0.178  -3.176  1.00  0.00     0.049 C 
ATOM     25  C   UNL     1      -3.714  -0.671   0.448  1.00  0.00     0.071 A 
ATOM     26  C   UNL     1      -4.844  -1.480  -1.664  1.00  0.00     0.047 C 
BRANCH  25  27
ATOM     27  C   UNL     1      -4.815  -1.185   1.345  1.00  0.00     0.094 C 
BRANCH  27  28
ATOM     28  C   UNL     1      -6.119  -0.422   1.249  1.00  0.00    -0.042 A 
ATOM     29  C   UNL     1      -6.154   0.965   1.458  1.00  0.00     0.004 A 
ATOM     30  C   UNL     1      -7.320  -1.096   0.983  1.00  0.00     0.004 A 
ATOM     31  C   UNL     1      -7.359   1.664   1.376  1.00  0.00     0.000 A 
ATOM     32  C   UNL     1      -8.524  -0.395   0.903  1.00  0.00     0.000 A 
ATOM     33  C   UNL     1      -8.543   0.985   1.094  1.00  0.00     0.000 A 
ENDBRANCH  27  28
ENDBRANCH  25  27
ENDBRANCH   4  19
TORSDOF 6
