REMARK SMILES CNS(=O)(=O)Cc1ccc2[nH]cc(CCN(C)C)c2c1
REMARK SMILES IDX 7 1 8 2 9 3 10 4 11 5 12 6 13 7 19 8 20 9 6 11 3 12 4 13
REMARK SMILES IDX 5 14 2 15 1 16 14 18 15 19 16 20 17 21 18 22
REMARK H PARENT 11 10 2 17
REMARK Flexibility Score: inf
ROOT
ATOM      1  C   UNL     1       1.846   1.373  -0.729  1.00  0.00    -0.031 A 
ATOM      2  C   UNL     1       1.981   2.762  -0.615  1.00  0.00     0.007 A 
ATOM      3  C   UNL     1       0.874   3.590  -0.402  1.00  0.00     0.027 A 
ATOM      4  C   UNL     1      -0.381   2.982  -0.303  1.00  0.00     0.046 A 
ATOM      5  N   UNL     1      -1.621   3.539  -0.092  1.00  0.00    -0.361 N 
ATOM      6  C   UNL     1      -2.580   2.563  -0.060  1.00  0.00     0.087 A 
ATOM      7  C   UNL     1      -1.962   1.341  -0.246  1.00  0.00    -0.021 A 
ATOM      8  C   UNL     1      -0.563   1.604  -0.404  1.00  0.00     0.003 A 
ATOM      9  C   UNL     1       0.570   0.790  -0.617  1.00  0.00     0.015 A 
ATOM     10  H   UNL     1      -1.790   4.528   0.027  1.00  0.00     0.166 HD
ENDROOT
BRANCH   1  11
ATOM     11  C   UNL     1       3.057   0.506  -0.957  1.00  0.00     0.189 C 
BRANCH  11  12
ATOM     12  S   UNL     1       3.749   0.021   0.631  1.00  0.00     0.215 S 
ATOM     13  O   UNL     1       2.854  -0.881   1.322  1.00  0.00    -0.212 OA
ATOM     14  O   UNL     1       4.324   1.179   1.282  1.00  0.00    -0.212 OA
BRANCH  12  15
ATOM     15  N   UNL     1       5.086  -0.890   0.140  1.00  0.00    -0.218 NA
ATOM     16  C   UNL     1       4.876  -2.316  -0.114  1.00  0.00     0.120 C 
ATOM     17  H   UNL     1       5.904  -0.650   0.704  1.00  0.00     0.140 HD
ENDBRANCH  12  15
ENDBRANCH  11  12
ENDBRANCH   1  11
BRANCH   7  18
ATOM     18  C   UNL     1      -2.633   0.001  -0.273  1.00  0.00     0.053 C 
BRANCH  18  19
ATOM     19  C   UNL     1      -2.603  -0.691   1.103  1.00  0.00     0.088 C 
BRANCH  19  20
ATOM     20  N   UNL     1      -3.217  -2.028   1.197  1.00  0.00    -0.309 NA
ATOM     21  C   UNL     1      -4.645  -2.017   0.895  1.00  0.00     0.104 C 
ATOM     22  C   UNL     1      -2.515  -3.026   0.397  1.00  0.00     0.104 C 
ENDBRANCH  19  20
ENDBRANCH  18  19
ENDBRANCH   7  18
TORSDOF 6
