REMARK SMILES C=CC(=O)Nc1cccc(Oc2nc(Nc3ccc(N4CCN(C)CC4)c(F)c3)nc3[nH]ccc23)c1
REMARK SMILES IDX 14 1 13 2 12 3 35 4 34 5 33 6 32 7 31 8 30 9 15 11 16 13
REMARK SMILES IDX 19 14 27 15 18 16 28 17 29 18 17 19 20 20 24 21 23 22 22 23
REMARK SMILES IDX 25 24 21 25 26 26 11 27 10 28 9 29 36 30 8 31 6 32 7 33 5 34
REMARK SMILES IDX 3 35 4 37 2 38 1 39
REMARK H PARENT 32 10 15 12 5 36
REMARK Flexibility Score: inf
ROOT
ATOM      1  C   UNL     1       0.595  -0.558  -0.954  1.00  0.00     0.232 A 
ATOM      2  N   UNL     1       1.728  -1.287  -0.963  1.00  0.00    -0.176 NA
ATOM      3  C   UNL     1       2.907  -0.671  -1.206  1.00  0.00     0.233 A 
ATOM      4  C   UNL     1       2.937   0.691  -1.486  1.00  0.00     0.081 A 
ATOM      5  C   UNL     1       3.902   1.679  -1.817  1.00  0.00     0.035 A 
ATOM      6  C   UNL     1       3.232   2.874  -1.967  1.00  0.00     0.085 A 
ATOM      7  N   UNL     1       1.900   2.642  -1.740  1.00  0.00    -0.346 N 
ATOM      8  C   UNL     1       1.708   1.321  -1.452  1.00  0.00     0.146 A 
ATOM      9  N   UNL     1       0.524   0.761  -1.188  1.00  0.00    -0.194 NA
ATOM     10  H   UNL     1       1.155   3.323  -1.779  1.00  0.00     0.167 HD
ENDROOT
BRANCH   1  11
ATOM     11  N   UNL     1      -0.549  -1.299  -0.658  1.00  0.00    -0.324 N 
ATOM     12  H   UNL     1      -0.277  -2.260  -0.512  1.00  0.00     0.170 HD
BRANCH  11  13
ATOM     13  C   UNL     1      -1.899  -0.980  -0.500  1.00  0.00     0.044 A 
ATOM     14  C   UNL     1      -4.704  -0.446  -0.085  1.00  0.00     0.073 A 
ATOM     15  C   UNL     1      -3.796   0.542  -0.510  1.00  0.00     0.148 A 
ATOM     16  C   UNL     1      -4.152  -1.722   0.105  1.00  0.00     0.031 A 
ATOM     17  F   UNL     1      -4.205   1.806  -0.719  1.00  0.00    -0.205 F 
ATOM     18  C   UNL     1      -2.433   0.288  -0.708  1.00  0.00     0.067 A 
ATOM     19  C   UNL     1      -2.787  -1.983  -0.094  1.00  0.00     0.028 A 
BRANCH  14  20
ATOM     20  N   UNL     1      -6.061  -0.221   0.118  1.00  0.00    -0.367 N 
ATOM     21  C   UNL     1     -10.089  -0.176   0.806  1.00  0.00     0.105 C 
ATOM     22  N   UNL     1      -8.837   0.559   0.956  1.00  0.00    -0.303 NA
ATOM     23  C   UNL     1      -7.882  -0.150   1.831  1.00  0.00     0.105 C 
ATOM     24  C   UNL     1      -8.243   0.850  -0.367  1.00  0.00     0.105 C 
ATOM     25  C   UNL     1      -6.814  -1.009   1.111  1.00  0.00     0.132 C 
ATOM     26  C   UNL     1      -6.706   1.020  -0.348  1.00  0.00     0.132 C 
ENDBRANCH  14  20
ENDBRANCH  11  13
ENDBRANCH   1  11
BRANCH   3  27
ATOM     27  O   UNL     1       4.040  -1.468  -1.221  1.00  0.00    -0.438 OA
BRANCH  27  28
ATOM     28  C   UNL     1       4.845  -1.306  -0.119  1.00  0.00     0.131 A 
ATOM     29  C   UNL     1       4.405  -1.659   1.156  1.00  0.00     0.047 A 
ATOM     30  C   UNL     1       6.142  -0.830  -0.320  1.00  0.00     0.073 A 
ATOM     31  C   UNL     1       5.259  -1.503   2.242  1.00  0.00     0.006 A 
ATOM     32  C   UNL     1       6.996  -0.649   0.768  1.00  0.00     0.045 A 
ATOM     33  C   UNL     1       6.547  -0.998   2.048  1.00  0.00     0.026 A 
BRANCH  32  34
ATOM     34  N   UNL     1       8.304  -0.136   0.659  1.00  0.00    -0.322 N 
ATOM     35  C   UNL     1       8.885   0.415  -0.458  1.00  0.00     0.247 C 
ATOM     36  H   UNL     1       8.836  -0.095   1.516  1.00  0.00     0.170 HD
ATOM     37  O   UNL     1       8.359   0.637  -1.540  1.00  0.00    -0.270 OA
BRANCH  35  38
ATOM     38  C   UNL     1      10.296   0.846  -0.255  1.00  0.00     0.064 C 
ATOM     39  C   UNL     1      11.185   0.228   0.535  1.00  0.00     0.014 C 
ENDBRANCH  35  38
ENDBRANCH  32  34
ENDBRANCH  27  28
ENDBRANCH   3  27
TORSDOF 7
