REMARK SMILES CC(C)C(=O)c1c(C(C)C)nn2ccccc12
REMARK SMILES IDX 6 1 7 2 11 3 12 4 13 5 14 6 15 7 16 8 17 9 4 10 5 11 2 12
REMARK SMILES IDX 1 13 3 14 8 15 9 16 10 17
REMARK H PARENT
REMARK Flexibility Score: inf
ROOT
ATOM      1  C   UNL     1       0.139   0.503   0.310  1.00  0.00     0.067 A 
ATOM      2  C   UNL     1      -1.061  -0.214   0.031  1.00  0.00     0.077 A 
ATOM      3  N   UNL     1      -2.079   0.607  -0.260  1.00  0.00    -0.172 NA
ATOM      4  N   UNL     1      -1.588   1.860  -0.118  1.00  0.00    -0.240 N 
ATOM      5  C   UNL     1      -2.284   3.057  -0.298  1.00  0.00     0.113 C 
ATOM      6  C   UNL     1      -1.661   4.234  -0.124  1.00  0.00     0.020 C 
ATOM      7  C   UNL     1      -0.260   4.231   0.257  1.00  0.00     0.004 C 
ATOM      8  C   UNL     1       0.420   3.082   0.432  1.00  0.00     0.029 C 
ATOM      9  C   UNL     1      -0.242   1.831   0.241  1.00  0.00     0.077 A 
ENDROOT
BRANCH   1  10
ATOM     10  C   UNL     1       1.485   0.042   0.632  1.00  0.00     0.169 C 
ATOM     11  O   UNL     1       2.162   0.622   1.483  1.00  0.00    -0.294 OA
BRANCH  10  12
ATOM     12  C   UNL     1       2.080  -1.123  -0.154  1.00  0.00     0.055 C 
ATOM     13  C   UNL     1       3.233  -0.609  -1.013  1.00  0.00     0.016 C 
ATOM     14  C   UNL     1       2.556  -2.212   0.803  1.00  0.00     0.016 C 
ENDBRANCH  10  12
ENDBRANCH   1  10
BRANCH   2  15
ATOM     15  C   UNL     1      -1.317  -1.699   0.060  1.00  0.00     0.035 C 
ATOM     16  C   UNL     1      -2.460  -2.065   1.014  1.00  0.00     0.014 C 
ATOM     17  C   UNL     1      -1.593  -2.252  -1.340  1.00  0.00     0.014 C 
ENDBRANCH   2  15
TORSDOF 3
