REMARK SMILES NCCc1c[nH]cn1
REMARK SMILES IDX 2 1 1 2 3 5 4 6 5 7 8 8 6 9 7 10
REMARK H PARENT 1 3 1 4 6 11
REMARK Flexibility Score: inf
ROOT
ATOM      1  C   UNL     1      -1.632   0.471  -0.487  1.00  0.00     0.084 C 
ENDROOT
BRANCH   1   2
ATOM      2  N   UNL     1      -3.072   0.247  -0.322  1.00  0.00    -0.330 NA
ATOM      3  H   UNL     1      -3.308  -0.673  -0.694  1.00  0.00     0.118 HD
ATOM      4  H   UNL     1      -3.575   0.919  -0.902  1.00  0.00     0.118 HD
ENDBRANCH   1   2
BRANCH   1   5
ATOM      5  C   UNL     1      -0.807  -0.545   0.309  1.00  0.00     0.073 C 
BRANCH   5   6
ATOM      6  C   UNL     1       0.657  -0.315   0.154  1.00  0.00     0.059 A 
ATOM      7  C   UNL     1       1.561   0.180   1.070  1.00  0.00     0.107 A 
ATOM      8  N   UNL     1       1.294  -0.608  -1.030  1.00  0.00    -0.242 NA
ATOM      9  N   UNL     1       2.765   0.183   0.423  1.00  0.00    -0.351 N 
ATOM     10  C   UNL     1       2.555  -0.300  -0.837  1.00  0.00     0.196 A 
ATOM     11  H   UNL     1       3.652   0.483   0.802  1.00  0.00     0.167 HD
ENDBRANCH   5   6
ENDBRANCH   1   5
TORSDOF 3
