REMARK SMILES O=c1ccc2ccc(OCCCCN3CCN(c4cccc5sccc45)CC3)cc2[nH]1
REMARK SMILES IDX 11 1 10 2 9 3 8 4 1 5 2 6 3 7 31 8 4 9 30 10 5 12 29 13 6 14
REMARK SMILES IDX 7 15 12 16 13 17 14 18 15 19 28 20 16 21 27 22 17 23 18 24
REMARK SMILES IDX 19 25 26 26 20 27 22 28 25 29 21 30 23 31 24 32
REMARK H PARENT 31 11
REMARK Flexibility Score: inf
ROOT
ATOM      1  C   UNL     1      -1.818   3.603   0.214  1.00  0.00     0.043 C 
ENDROOT
BRANCH   1   2
ATOM      2  C   UNL     1      -2.927   2.662  -0.262  1.00  0.00     0.229 C 
BRANCH   2   3
ATOM      3  O   UNL     1      -3.137   1.655   0.731  1.00  0.00    -0.494 OA
BRANCH   3   4
ATOM      4  C   UNL     1      -4.036   0.667   0.444  1.00  0.00     0.121 A 
ATOM      5  O   UNL     1      -8.256  -1.534  -3.123  1.00  0.00    -0.270 OA
ATOM      6  C   UNL     1      -7.512  -1.513  -2.148  1.00  0.00     0.248 C 
ATOM      7  C   UNL     1      -7.527  -2.619  -1.161  1.00  0.00     0.072 C 
ATOM      8  N   UNL     1      -6.636  -0.487  -1.915  1.00  0.00    -0.322 N 
ATOM      9  C   UNL     1      -6.716  -2.612  -0.094  1.00  0.00     0.016 C 
ATOM     10  C   UNL     1      -5.768  -0.446  -0.813  1.00  0.00     0.052 A 
ATOM     11  H   UNL     1      -6.639   0.258  -2.597  1.00  0.00     0.170 HD
ATOM     12  C   UNL     1      -5.792  -1.498   0.115  1.00  0.00    -0.002 A 
ATOM     13  C   UNL     1      -4.897   0.635  -0.654  1.00  0.00     0.073 A 
ATOM     14  C   UNL     1      -4.934  -1.458   1.214  1.00  0.00     0.014 A 
ATOM     15  C   UNL     1      -4.064  -0.377   1.376  1.00  0.00     0.047 A 
ENDBRANCH   3   4
ENDBRANCH   2   3
ENDBRANCH   1   2
BRANCH   1  16
ATOM     16  C   UNL     1      -0.507   2.902   0.597  1.00  0.00     0.019 C 
BRANCH  16  17
ATOM     17  C   UNL     1       0.138   2.146  -0.572  1.00  0.00     0.085 C 
BRANCH  17  18
ATOM     18  N   UNL     1       1.481   1.643  -0.240  1.00  0.00    -0.300 NA
ATOM     19  C   UNL     1       1.423   0.516   0.728  1.00  0.00     0.106 C 
ATOM     20  C   UNL     1       2.168   1.181  -1.474  1.00  0.00     0.106 C 
ATOM     21  C   UNL     1       2.820  -0.083   1.028  1.00  0.00     0.132 C 
ATOM     22  C   UNL     1       3.561   0.559  -1.213  1.00  0.00     0.132 C 
ATOM     23  N   UNL     1       3.437  -0.531  -0.227  1.00  0.00    -0.368 N 
BRANCH  23  24
ATOM     24  C   UNL     1       4.591  -1.343  -0.154  1.00  0.00     0.045 A 
ATOM     25  C   UNL     1       4.608  -2.441  -1.051  1.00  0.00     0.026 A 
ATOM     26  C   UNL     1       5.720  -1.171   0.714  1.00  0.00     0.016 A 
ATOM     27  C   UNL     1       5.651  -3.353  -1.094  1.00  0.00     0.004 A 
ATOM     28  C   UNL     1       6.756  -2.116   0.658  1.00  0.00     0.036 A 
ATOM     29  C   UNL     1       6.058  -0.141   1.671  1.00  0.00     0.022 A 
ATOM     30  C   UNL     1       6.734  -3.206  -0.234  1.00  0.00     0.020 A 
ATOM     31  S   UNL     1       8.014  -1.774   1.791  1.00  0.00    -0.144 S 
ATOM     32  C   UNL     1       7.248  -0.356   2.328  1.00  0.00     0.066 A 
ENDBRANCH  23  24
ENDBRANCH  17  18
ENDBRANCH  16  17
ENDBRANCH   1  16
TORSDOF 7
