REMARK SMILES COc1cc2nc(N3CCN(C(=O)c4ccco4)CC3)nc(N)c2cc1OC
REMARK SMILES IDX 8 1 9 2 10 3 11 4 12 5 13 6 19 7 20 8 7 9 3 10 4 11 26 12
REMARK SMILES IDX 5 13 25 14 6 15 24 16 22 17 21 18 2 19 1 20 27 21 28 22
REMARK SMILES IDX 23 23 14 26 15 27 18 28 16 29 17 30
REMARK H PARENT 23 24 23 25
REMARK Flexibility Score: inf
ROOT
ATOM      1  N   UNL     1      -1.015  -0.237   0.004  1.00  0.00    -0.337 N 
ATOM      2  C   UNL     1      -1.584   0.603  -1.050  1.00  0.00     0.141 C 
ATOM      3  C   UNL     1      -2.888   0.006  -1.610  1.00  0.00     0.141 C 
ATOM      4  N   UNL     1      -3.864  -0.327  -0.569  1.00  0.00    -0.332 N 
ATOM      5  C   UNL     1      -5.223  -0.295  -0.895  1.00  0.00     0.289 C 
ATOM      6  O   UNL     1      -5.567  -0.109  -2.065  1.00  0.00    -0.265 OA
ATOM      7  C   UNL     1      -3.314  -0.813   0.703  1.00  0.00     0.141 C 
ATOM      8  C   UNL     1      -1.846  -1.272   0.609  1.00  0.00     0.141 C 
ENDROOT
BRANCH   1   9
ATOM      9  C   UNL     1       0.353  -0.303   0.144  1.00  0.00     0.228 A 
ATOM     10  C   UNL     1       4.606   1.577  -0.811  1.00  0.00     0.162 A 
ATOM     11  C   UNL     1       3.212   1.551  -0.937  1.00  0.00     0.079 A 
ATOM     12  C   UNL     1       5.247   0.604  -0.025  1.00  0.00     0.161 A 
ATOM     13  C   UNL     1       2.433   0.584  -0.312  1.00  0.00     0.082 A 
ATOM     14  C   UNL     1       4.477  -0.375   0.602  1.00  0.00     0.064 A 
ATOM     15  N   UNL     1       1.106   0.622  -0.468  1.00  0.00    -0.213 NA
ATOM     16  C   UNL     1       3.068  -0.390   0.453  1.00  0.00     0.047 A 
ATOM     17  C   UNL     1       2.208  -1.325   1.029  1.00  0.00     0.137 A 
ATOM     18  N   UNL     1       0.877  -1.283   0.892  1.00  0.00    -0.195 NA
BRANCH  10  19
ATOM     19  O   UNL     1       5.422   2.506  -1.406  1.00  0.00    -0.493 OA
ATOM     20  C   UNL     1       4.808   3.521  -2.188  1.00  0.00     0.278 C 
ENDBRANCH  10  19
BRANCH  12  21
ATOM     21  O   UNL     1       6.613   0.693   0.059  1.00  0.00    -0.493 OA
ATOM     22  C   UNL     1       7.279  -0.191   0.948  1.00  0.00     0.278 C 
ENDBRANCH  12  21
BRANCH  17  23
ATOM     23  N   UNL     1       2.688  -2.384   1.812  1.00  0.00    -0.383 N 
ATOM     24  H   UNL     1       1.876  -2.932   2.088  1.00  0.00     0.158 HD
ATOM     25  H   UNL     1       3.351  -2.948   1.292  1.00  0.00     0.158 HD
ENDBRANCH  17  23
ENDBRANCH   1   9
BRANCH   5  26
ATOM     26  C   UNL     1      -6.226  -0.479   0.146  1.00  0.00     0.191 A 
ATOM     27  C   UNL     1      -7.583  -0.729   0.025  1.00  0.00     0.056 A 
ATOM     28  O   UNL     1      -5.918  -0.354   1.475  1.00  0.00    -0.459 OA
ATOM     29  C   UNL     1      -8.116  -0.781   1.335  1.00  0.00     0.043 A 
ATOM     30  C   UNL     1      -7.061  -0.544   2.181  1.00  0.00     0.196 A 
ENDBRANCH   5  26
TORSDOF 5
