REMARK SMILES COc1ccc2c3c1O[C@H]1[C@@H](O)CC[C@H]4[C@@H](C2)N(C)CC[C@@]341
REMARK SMILES IDX 3 1 4 2 5 3 6 4 7 5 8 6 9 7 10 8 11 9 13 10 14 11 15 12
REMARK SMILES IDX 16 13 17 14 18 15 19 16 20 17 21 18 22 19 2 20 1 21 12 22
REMARK H PARENT 12 23
REMARK Flexibility Score: inf
ROOT
ATOM      1  C   UNL     1       2.911  -0.480   0.192  1.00  0.00     0.161 A 
ATOM      2  C   UNL     1       2.716  -1.610  -0.617  1.00  0.00     0.051 A 
ATOM      3  C   UNL     1       1.420  -2.022  -1.000  1.00  0.00     0.008 A 
ATOM      4  C   UNL     1       0.298  -1.335  -0.539  1.00  0.00    -0.039 A 
ATOM      5  C   UNL     1       0.518  -0.288   0.339  1.00  0.00     0.012 A 
ATOM      6  C   UNL     1       1.779   0.181   0.638  1.00  0.00     0.165 A 
ATOM      7  O   UNL     1       1.745   1.372   1.317  1.00  0.00    -0.483 OA
ATOM      8  C   UNL     1       0.337   1.783   1.343  1.00  0.00     0.213 C 
ATOM      9  C   UNL     1       0.061   3.002   0.436  1.00  0.00     0.156 C 
ATOM     10  C   UNL     1      -0.007   2.623  -1.042  1.00  0.00     0.036 C 
ATOM     11  C   UNL     1      -1.103   1.593  -1.346  1.00  0.00     0.009 C 
ATOM     12  C   UNL     1      -1.606   0.803  -0.115  1.00  0.00     0.021 C 
ATOM     13  C   UNL     1      -2.192  -0.599  -0.477  1.00  0.00     0.064 C 
ATOM     14  C   UNL     1      -1.101  -1.580  -1.048  1.00  0.00     0.055 C 
ATOM     15  N   UNL     1      -2.894  -1.087   0.738  1.00  0.00    -0.303 NA
ATOM     16  C   UNL     1      -3.748  -2.243   0.481  1.00  0.00     0.105 C 
ATOM     17  C   UNL     1      -1.984  -1.339   1.861  1.00  0.00     0.085 C 
ATOM     18  C   UNL     1      -1.146  -0.100   2.196  1.00  0.00     0.032 C 
ATOM     19  C   UNL     1      -0.529   0.570   0.953  1.00  0.00     0.044 C 
ENDROOT
BRANCH   1  20
ATOM     20  O   UNL     1       4.115   0.045   0.562  1.00  0.00    -0.493 OA
ATOM     21  C   UNL     1       5.281  -0.627   0.109  1.00  0.00     0.278 C 
ENDBRANCH   1  20
BRANCH   9  22
ATOM     22  O   UNL     1       1.028   4.028   0.655  1.00  0.00    -0.389 OA
ATOM     23  H   UNL     1       0.941   4.686  -0.054  1.00  0.00     0.211 HD
ENDBRANCH   9  22
TORSDOF 2
