REMARK SMILES Nc1ncc(-c2cnn(CCO)c2)c2scc(-c3ccc(NC(=O)Nc4cccc(F)c4)cc3)c12
REMARK SMILES IDX 2 1 35 2 14 3 15 4 16 5 17 6 5 7 4 8 3 9 1 10 18 13 19 14
REMARK SMILES IDX 34 15 20 16 33 17 21 18 22 19 23 20 24 22 25 23 26 25 32 26
REMARK SMILES IDX 27 27 30 28 28 29 31 30 29 31 6 32 13 33 7 34 9 35 8 36
REMARK SMILES IDX 10 37 11 38 12 39
REMARK H PARENT 1 11 1 12 22 21 25 24 12 40
REMARK Flexibility Score: inf
ROOT
ATOM      1  C   UNL     1      -1.763  -1.096   1.635  1.00  0.00     0.132 A 
ATOM      2  C   UNL     1      -2.002  -0.406   0.414  1.00  0.00     0.043 A 
ATOM      3  C   UNL     1      -3.323  -0.358  -0.071  1.00  0.00     0.048 A 
ATOM      4  S   UNL     1      -3.401   0.502  -1.573  1.00  0.00    -0.142 S 
ATOM      5  C   UNL     1      -1.738   0.826  -1.579  1.00  0.00     0.075 A 
ATOM      6  C   UNL     1      -1.097   0.298  -0.481  1.00  0.00     0.004 A 
ATOM      7  C   UNL     1      -4.376  -0.975   0.632  1.00  0.00     0.021 A 
ATOM      8  C   UNL     1      -4.026  -1.626   1.801  1.00  0.00     0.123 A 
ATOM      9  N   UNL     1      -2.778  -1.685   2.299  1.00  0.00    -0.238 NA
ENDROOT
BRANCH   1  10
ATOM     10  N   UNL     1      -0.523  -1.217   2.241  1.00  0.00    -0.383 N 
ATOM     11  H   UNL     1      -0.622  -1.514   3.204  1.00  0.00     0.158 HD
ATOM     12  H   UNL     1       0.137  -0.474   2.061  1.00  0.00     0.158 HD
ENDBRANCH   1  10
BRANCH   6  13
ATOM     13  C   UNL     1       0.342   0.471  -0.349  1.00  0.00    -0.017 A 
ATOM     14  C   UNL     1       0.874   1.714   0.004  1.00  0.00     0.011 A 
ATOM     15  C   UNL     1       1.203  -0.607  -0.563  1.00  0.00     0.011 A 
ATOM     16  C   UNL     1       2.257   1.873   0.138  1.00  0.00     0.027 A 
ATOM     17  C   UNL     1       2.587  -0.445  -0.428  1.00  0.00     0.027 A 
ATOM     18  C   UNL     1       3.126   0.796  -0.084  1.00  0.00     0.042 A 
BRANCH  18  19
ATOM     19  N   UNL     1       4.506   1.034   0.085  1.00  0.00    -0.308 N 
ATOM     20  C   UNL     1       5.553   0.190  -0.259  1.00  0.00     0.323 C 
ATOM     21  H   UNL     1       4.766   1.978   0.327  1.00  0.00     0.171 HD
ATOM     22  O   UNL     1       5.435  -0.861  -0.873  1.00  0.00    -0.248 OA
ATOM     23  N   UNL     1       6.755   0.717   0.195  1.00  0.00    -0.308 N 
ATOM     24  H   UNL     1       6.681   1.434   0.901  1.00  0.00     0.171 HD
BRANCH  23  25
ATOM     25  C   UNL     1       8.055   0.223  -0.049  1.00  0.00     0.045 A 
ATOM     26  C   UNL     1       9.107   0.809   0.663  1.00  0.00     0.065 A 
ATOM     27  C   UNL     1       8.345  -0.791  -0.968  1.00  0.00     0.026 A 
ATOM     28  C   UNL     1      10.414   0.374   0.459  1.00  0.00     0.125 A 
ATOM     29  C   UNL     1       9.663  -1.222  -1.165  1.00  0.00     0.005 A 
ATOM     30  F   UNL     1      11.409   0.944   1.151  1.00  0.00    -0.207 F 
ATOM     31  C   UNL     1      10.702  -0.638  -0.447  1.00  0.00     0.039 A 
ENDBRANCH  23  25
ENDBRANCH  18  19
ENDBRANCH   6  13
BRANCH   7  32
ATOM     32  C   UNL     1      -5.741  -0.965   0.166  1.00  0.00     0.023 A 
ATOM     33  C   UNL     1      -6.494   0.166  -0.068  1.00  0.00     0.117 A 
ATOM     34  C   UNL     1      -6.633  -2.033  -0.074  1.00  0.00     0.144 A 
ATOM     35  N   UNL     1      -7.728  -0.273  -0.456  1.00  0.00    -0.270 N 
ATOM     36  N   UNL     1      -7.843  -1.613  -0.452  1.00  0.00    -0.181 NA
BRANCH  35  37
ATOM     37  C   UNL     1      -8.859   0.546  -0.837  1.00  0.00     0.172 C 
BRANCH  37  38
ATOM     38  C   UNL     1      -9.934   0.575   0.239  1.00  0.00     0.179 C 
BRANCH  38  39
ATOM     39  O   UNL     1     -10.952   1.518  -0.096  1.00  0.00    -0.394 OA
ATOM     40  H   UNL     1     -10.601   2.410   0.071  1.00  0.00     0.210 HD
ENDBRANCH  38  39
ENDBRANCH  37  38
ENDBRANCH  35  37
ENDBRANCH   7  32
TORSDOF 8
