REMARK SMILES COc1cnc(NS(=O)(=O)c2ccc(N)cc2)nc1
REMARK SMILES IDX 8 1 9 2 10 3 7 4 6 6 3 7 4 8 19 9 5 10 18 11 2 12 1 13 11 14
REMARK SMILES IDX 12 15 17 16 13 17 16 18 14 19 15 20
REMARK H PARENT 7 5 15 21 15 22
REMARK Flexibility Score: inf
ROOT
ATOM      1  S   UNL     1      -0.577   1.149  -2.373  1.00  0.00     0.264 S 
ATOM      2  O   UNL     1       0.095   2.362  -1.955  1.00  0.00    -0.201 OA
ATOM      3  O   UNL     1      -1.277   1.109  -3.643  1.00  0.00    -0.201 OA
ENDROOT
BRANCH   1   4
ATOM      4  N   UNL     1       0.496  -0.116  -2.405  1.00  0.00    -0.247 N 
ATOM      5  H   UNL     1       0.831  -0.348  -3.333  1.00  0.00     0.183 HD
BRANCH   4   6
ATOM      6  C   UNL     1       1.491  -0.142  -1.437  1.00  0.00     0.236 A 
ATOM      7  C   UNL     1       3.410  -0.574   0.413  1.00  0.00     0.155 A 
ATOM      8  C   UNL     1       2.154  -0.106   0.737  1.00  0.00     0.163 A 
ATOM      9  C   UNL     1       3.590  -0.834  -0.931  1.00  0.00     0.163 A 
ATOM     10  N   UNL     1       1.170   0.099  -0.166  1.00  0.00    -0.217 NA
ATOM     11  N   UNL     1       2.644  -0.649  -1.878  1.00  0.00    -0.217 NA
BRANCH   7  12
ATOM     12  O   UNL     1       4.458  -0.812   1.243  1.00  0.00    -0.494 OA
ATOM     13  C   UNL     1       4.252  -0.523   2.622  1.00  0.00     0.278 C 
ENDBRANCH   7  12
ENDBRANCH   4   6
ENDBRANCH   1   4
BRANCH   1  14
ATOM     14  C   UNL     1      -1.761   0.674  -1.138  1.00  0.00     0.088 A 
ATOM     15  C   UNL     1      -1.846   1.383   0.062  1.00  0.00     0.024 A 
ATOM     16  C   UNL     1      -2.620  -0.397  -1.390  1.00  0.00     0.024 A 
ATOM     17  C   UNL     1      -2.798   1.009   1.014  1.00  0.00     0.027 A 
ATOM     18  C   UNL     1      -3.567  -0.760  -0.429  1.00  0.00     0.027 A 
ATOM     19  C   UNL     1      -3.697  -0.031   0.758  1.00  0.00     0.031 A 
BRANCH  19  20
ATOM     20  N   UNL     1      -4.566  -0.473   1.763  1.00  0.00    -0.399 N 
ATOM     21  H   UNL     1      -4.833   0.252   2.421  1.00  0.00     0.156 HD
ATOM     22  H   UNL     1      -5.368  -0.987   1.413  1.00  0.00     0.156 HD
ENDBRANCH  19  20
ENDBRANCH   1  14
TORSDOF 5
