REMARK SMILES OCC1OC(Sc2cncc(Br)c2)C(O)C(n2cc(-c3cc(F)c(F)c(F)c3)nn2)C1O
REMARK SMILES IDX 3 1 4 2 5 3 14 4 16 5 31 6 2 7 1 8 32 10 6 12 7 13 8 14
REMARK SMILES IDX 13 15 9 16 11 17 10 18 12 19 17 20 18 21 30 22 19 23 29 24
REMARK SMILES IDX 20 25 21 26 28 27 22 28 26 29 23 30 24 31 27 32 25 33 15 34
REMARK H PARENT 1 9 32 11 15 35
REMARK Flexibility Score: inf
ROOT
ATOM      1  C   UNL     1      -1.804  -1.461  -1.461  1.00  0.00     0.176 C 
ATOM      2  O   UNL     1      -2.425  -0.226  -1.090  1.00  0.00    -0.356 OA
ATOM      3  C   UNL     1      -2.293   0.175   0.280  1.00  0.00     0.211 C 
ATOM      4  C   UNL     1      -0.880  -0.113   0.854  1.00  0.00     0.181 C 
ATOM      5  C   UNL     1       0.109  -0.255  -0.307  1.00  0.00     0.172 C 
ATOM      6  C   UNL     1      -0.282  -1.463  -1.170  1.00  0.00     0.173 C 
ENDROOT
BRANCH   1   7
ATOM      7  C   UNL     1      -2.568  -2.702  -0.954  1.00  0.00     0.191 C 
BRANCH   7   8
ATOM      8  O   UNL     1      -2.775  -2.774   0.447  1.00  0.00    -0.394 OA
ATOM      9  H   UNL     1      -1.955  -2.539   0.928  1.00  0.00     0.210 HD
ENDBRANCH   7   8
ENDBRANCH   1   7
BRANCH   6  10
ATOM     10  O   UNL     1       0.439  -1.356  -2.414  1.00  0.00    -0.388 OA
ATOM     11  H   UNL     1       0.324  -2.192  -2.903  1.00  0.00     0.211 HD
ENDBRANCH   6  10
BRANCH   3  12
ATOM     12  S   UNL     1      -2.607   1.991   0.389  1.00  0.00    -0.090 SA
BRANCH  12  13
ATOM     13  C   UNL     1      -4.385   2.020   0.326  1.00  0.00     0.029 A 
ATOM     14  C   UNL     1      -5.108   2.655   1.334  1.00  0.00     0.126 A 
ATOM     15  C   UNL     1      -5.111   1.458  -0.726  1.00  0.00     0.034 A 
ATOM     16  N   UNL     1      -6.461   2.739   1.372  1.00  0.00    -0.262 NA
ATOM     17  C   UNL     1      -6.501   1.528  -0.715  1.00  0.00     0.037 A 
ATOM     18  C   UNL     1      -7.129   2.168   0.343  1.00  0.00     0.126 A 
ATOM     19  Br  UNL     1      -7.509   0.770  -2.117  1.00  0.00    -0.049 Br
ENDBRANCH  12  13
ENDBRANCH   3  12
BRANCH   5  20
ATOM     20  N   UNL     1       1.485  -0.361   0.159  1.00  0.00    -0.243 N 
ATOM     21  C   UNL     1       2.588   0.278  -0.329  1.00  0.00     0.140 A 
ATOM     22  N   UNL     1       1.799  -1.137   1.214  1.00  0.00    -0.066 NA
ATOM     23  C   UNL     1       3.613  -0.153   0.484  1.00  0.00     0.113 A 
ATOM     24  N   UNL     1       3.102  -1.015   1.422  1.00  0.00    -0.130 NA
BRANCH  23  25
ATOM     25  C   UNL     1       5.017   0.210   0.408  1.00  0.00     0.010 A 
ATOM     26  C   UNL     1       5.496   1.128  -0.539  1.00  0.00     0.053 A 
ATOM     27  C   UNL     1       5.930  -0.367   1.305  1.00  0.00     0.053 A 
ATOM     28  C   UNL     1       6.852   1.452  -0.579  1.00  0.00     0.162 A 
ATOM     29  C   UNL     1       7.282  -0.032   1.249  1.00  0.00     0.162 A 
ATOM     30  F   UNL     1       7.284   2.332  -1.492  1.00  0.00    -0.204 F 
ATOM     31  C   UNL     1       7.747   0.877   0.311  1.00  0.00     0.194 A 
ATOM     32  F   UNL     1       8.133  -0.598   2.116  1.00  0.00    -0.204 F 
ATOM     33  F   UNL     1       9.048   1.196   0.263  1.00  0.00    -0.200 F 
ENDBRANCH  23  25
ENDBRANCH   5  20
BRANCH   4  34
ATOM     34  O   UNL     1      -0.926  -1.352   1.605  1.00  0.00    -0.387 OA
ATOM     35  H   UNL     1      -0.042  -1.450   2.030  1.00  0.00     0.211 HD
ENDBRANCH   4  34
TORSDOF 8
