REMARK SMILES O=c1[nH]c(=O)n([C@H]2C[C@H](O)[C@@H](CO)O2)cc1I
REMARK SMILES IDX 7 1 8 2 9 3 11 4 14 5 6 6 1 7 2 8 3 9 16 10 4 11 15 13 17 14
REMARK SMILES IDX 5 15 10 16 12 18 13 19
REMARK H PARENT 3 12 10 17 13 20
REMARK Flexibility Score: inf
ROOT
ATOM      1  C   UNL     1       0.179  -0.817  -0.568  1.00  0.00     0.226 C 
ATOM      2  C   UNL     1       0.485   0.395  -1.436  1.00  0.00     0.090 C 
ATOM      3  C   UNL     1       1.992   0.432  -1.394  1.00  0.00     0.150 C 
ATOM      4  C   UNL     1       2.327  -0.100   0.002  1.00  0.00     0.175 C 
ATOM      5  O   UNL     1       1.191  -0.877   0.450  1.00  0.00    -0.349 OA
ENDROOT
BRANCH   1   6
ATOM      6  N   UNL     1      -1.154  -0.765   0.023  1.00  0.00    -0.273 N 
ATOM      7  O   UNL     1      -4.898  -0.514   1.444  1.00  0.00    -0.268 OA
ATOM      8  C   UNL     1      -3.739  -0.582   1.046  1.00  0.00     0.266 C 
ATOM      9  N   UNL     1      -3.450  -1.119  -0.179  1.00  0.00    -0.273 N 
ATOM     10  C   UNL     1      -2.572  -0.086   1.827  1.00  0.00     0.095 C 
ATOM     11  C   UNL     1      -2.212  -1.200  -0.761  1.00  0.00     0.330 C 
ATOM     12  H   UNL     1      -4.230  -1.433  -0.734  1.00  0.00     0.175 HD
ATOM     13  C   UNL     1      -1.360  -0.203   1.271  1.00  0.00     0.114 C 
ATOM     14  I   UNL     1      -2.855   0.750   3.669  1.00  0.00    -0.037 I 
ATOM     15  O   UNL     1      -2.095  -1.624  -1.908  1.00  0.00    -0.248 OA
ENDBRANCH   1   6
BRANCH   3  16
ATOM     16  O   UNL     1       2.506  -0.466  -2.383  1.00  0.00    -0.390 OA
ATOM     17  H   UNL     1       2.250  -0.121  -3.257  1.00  0.00     0.211 HD
ENDBRANCH   3  16
BRANCH   4  18
ATOM     18  C   UNL     1       2.596   1.005   1.030  1.00  0.00     0.190 C 
BRANCH  18  19
ATOM     19  O   UNL     1       1.557   1.983   1.037  1.00  0.00    -0.394 OA
ATOM     20  H   UNL     1       1.754   2.596   1.768  1.00  0.00     0.210 HD
ENDBRANCH  18  19
ENDBRANCH   4  18
TORSDOF 4
