REMARK SMILES Cc1onc(-c2c(Cl)cccc2Cl)c1C(=O)N[C@@H]1C(=O)N2[C@@H]1SC(C)(C)[C@@H]2C(=O)O
REMARK SMILES IDX 18 1 19 2 20 3 21 4 22 5 23 6 24 7 25 8 26 9 27 10 17 11
REMARK SMILES IDX 15 12 16 13 14 15 1 16 2 17 3 18 4 19 5 20 6 21 7 22 12 23
REMARK SMILES IDX 8 24 9 25 11 26 13 27 10 28 28 29 29 30 30 31
REMARK H PARENT 17 14 30 32
REMARK Flexibility Score: inf
ROOT
ATOM      1  C   UNL     1       0.476  -0.152  -1.794  1.00  0.00     0.205 C 
ATOM      2  C   UNL     1       1.665  -1.019  -2.261  1.00  0.00     0.250 C 
ATOM      3  O   UNL     1       1.810  -2.144  -2.680  1.00  0.00    -0.272 OA
ATOM      4  N   UNL     1       2.577  -0.087  -1.845  1.00  0.00    -0.311 N 
ATOM      5  C   UNL     1       1.569   0.722  -1.132  1.00  0.00     0.176 C 
ATOM      6  S   UNL     1       1.963   0.432   0.640  1.00  0.00    -0.125 SA
ATOM      7  C   UNL     1       3.768   0.230   0.249  1.00  0.00     0.044 C 
ATOM      8  C   UNL     1       4.416  -0.593   1.365  1.00  0.00     0.026 C 
ATOM      9  C   UNL     1       4.402   1.626   0.187  1.00  0.00     0.026 C 
ATOM     10  C   UNL     1       3.753  -0.527  -1.093  1.00  0.00     0.211 C 
ENDROOT
BRANCH   1  11
ATOM     11  N   UNL     1      -0.502  -0.827  -0.901  1.00  0.00    -0.337 N 
ATOM     12  C   UNL     1      -1.497  -0.109  -0.280  1.00  0.00     0.257 C 
ATOM     13  O   UNL     1      -1.635   1.095  -0.478  1.00  0.00    -0.269 OA
ATOM     14  H   UNL     1      -0.507  -1.838  -0.847  1.00  0.00     0.164 HD
BRANCH  12  15
ATOM     15  C   UNL     1      -2.386  -0.863   0.577  1.00  0.00     0.110 A 
ATOM     16  C   UNL     1      -0.981  -2.912   1.484  1.00  0.00     0.092 C 
ATOM     17  C   UNL     1      -2.145  -2.026   1.282  1.00  0.00     0.147 A 
ATOM     18  O   UNL     1      -3.268  -2.385   1.957  1.00  0.00    -0.360 OA
ATOM     19  N   UNL     1      -4.263  -1.459   1.735  1.00  0.00    -0.079 NA
ATOM     20  C   UNL     1      -3.730  -0.531   0.927  1.00  0.00     0.129 A 
BRANCH  20  21
ATOM     21  C   UNL     1      -4.518   0.615   0.494  1.00  0.00     0.042 A 
ATOM     22  C   UNL     1      -4.681   1.732   1.331  1.00  0.00     0.052 A 
ATOM     23  C   UNL     1      -5.123   0.632  -0.774  1.00  0.00     0.052 A 
ATOM     24  Cl  UNL     1      -3.949   1.831   2.898  1.00  0.00    -0.084 Cl
ATOM     25  C   UNL     1      -5.441   2.831   0.912  1.00  0.00     0.021 A 
ATOM     26  C   UNL     1      -5.882   1.734  -1.188  1.00  0.00     0.021 A 
ATOM     27  Cl  UNL     1      -4.969  -0.685  -1.890  1.00  0.00    -0.084 Cl
ATOM     28  C   UNL     1      -6.042   2.831  -0.345  1.00  0.00     0.003 A 
ENDBRANCH  20  21
ENDBRANCH  12  15
ENDBRANCH   1  11
BRANCH  10  29
ATOM     29  C   UNL     1       5.013  -0.324  -1.924  1.00  0.00     0.327 C 
ATOM     30  O   UNL     1       5.180   0.469  -2.837  1.00  0.00    -0.250 OA
BRANCH  29  31
ATOM     31  O   UNL     1       6.032  -1.115  -1.523  1.00  0.00    -0.480 OA
ATOM     32  H   UNL     1       6.758  -0.903  -2.149  1.00  0.00     0.296 HD
ENDBRANCH  29  31
ENDBRANCH  10  29
TORSDOF 5
