REMARK SMILES CN1CCC(COc2cnc(-c3cccc(Cn4nc(-c5cccc(C#N)c5)ccc4=O)c3)nc2)CC1
REMARK SMILES IDX 12 1 13 2 14 3 15 4 16 5 33 6 11 7 8 8 9 9 35 10 10 11 34 12
REMARK SMILES IDX 7 13 6 14 5 15 1 16 2 17 3 18 37 19 4 20 36 21 17 22 18 23
REMARK SMILES IDX 19 24 31 25 20 26 30 27 32 28 29 29 21 30 22 31 28 32 23 33
REMARK SMILES IDX 25 34 24 35 26 36 27 37
REMARK H PARENT
REMARK Flexibility Score: inf
ROOT
ATOM      1  C   UNL     1       1.000  -0.456   2.784  1.00  0.00     0.019 A 
ATOM      2  C   UNL     1       0.861  -1.353   3.860  1.00  0.00     0.012 A 
ATOM      3  C   UNL     1       1.843  -1.470   4.848  1.00  0.00     0.001 A 
ATOM      4  C   UNL     1       2.995  -0.689   4.786  1.00  0.00     0.006 A 
ATOM      5  C   UNL     1       3.165   0.228   3.745  1.00  0.00    -0.026 A 
ATOM      6  C   UNL     1       2.166   0.333   2.759  1.00  0.00     0.017 A 
ENDROOT
BRANCH   1   7
ATOM      7  C   UNL     1      -0.019  -0.356   1.720  1.00  0.00     0.159 A 
ATOM      8  C   UNL     1      -1.903  -0.188  -0.255  1.00  0.00     0.155 A 
ATOM      9  C   UNL     1      -2.059  -0.980   0.860  1.00  0.00     0.161 A 
ATOM     10  C   UNL     1      -0.716   0.512  -0.288  1.00  0.00     0.161 A 
ATOM     11  N   UNL     1      -1.146  -1.086   1.852  1.00  0.00    -0.233 NA
ATOM     12  N   UNL     1       0.237   0.450   0.670  1.00  0.00    -0.233 NA
BRANCH   8  13
ATOM     13  O   UNL     1      -2.763  -0.007  -1.289  1.00  0.00    -0.490 OA
BRANCH  13  14
ATOM     14  C   UNL     1      -3.929  -0.834  -1.360  1.00  0.00     0.233 C 
BRANCH  14  15
ATOM     15  C   UNL     1      -5.111  -0.210  -0.589  1.00  0.00     0.029 C 
ATOM     16  C   UNL     1      -7.742   0.151  -3.909  1.00  0.00     0.105 C 
ATOM     17  N   UNL     1      -6.784  -0.068  -2.829  1.00  0.00    -0.306 NA
ATOM     18  C   UNL     1      -6.045   1.168  -2.522  1.00  0.00     0.084 C 
ATOM     19  C   UNL     1      -7.422  -0.631  -1.642  1.00  0.00     0.084 C 
ATOM     20  C   UNL     1      -5.461   1.193  -1.103  1.00  0.00     0.022 C 
ATOM     21  C   UNL     1      -6.354  -1.120  -0.654  1.00  0.00     0.022 C 
ENDBRANCH  14  15
ENDBRANCH  13  14
ENDBRANCH   8  13
ENDBRANCH   1   7
BRANCH   5  22
ATOM     22  C   UNL     1       4.425   1.059   3.639  1.00  0.00     0.184 C 
BRANCH  22  23
ATOM     23  N   UNL     1       5.355   0.503   2.660  1.00  0.00    -0.225 N 
ATOM     24  N   UNL     1       5.082   0.781   1.336  1.00  0.00    -0.169 NA
ATOM     25  C   UNL     1       6.355  -0.359   3.080  1.00  0.00     0.267 C 
ATOM     26  C   UNL     1       5.808   0.209   0.429  1.00  0.00     0.091 C 
ATOM     27  C   UNL     1       7.169  -0.971   2.009  1.00  0.00     0.075 C 
ATOM     28  O   UNL     1       6.605  -0.644   4.249  1.00  0.00    -0.268 OA
ATOM     29  C   UNL     1       6.921  -0.718   0.723  1.00  0.00     0.036 C 
BRANCH  26  30
ATOM     30  C   UNL     1       5.490   0.468  -1.004  1.00  0.00     0.003 A 
ATOM     31  C   UNL     1       6.488   0.544  -1.983  1.00  0.00     0.010 A 
ATOM     32  C   UNL     1       4.146   0.659  -1.362  1.00  0.00     0.029 A 
ATOM     33  C   UNL     1       6.144   0.787  -3.315  1.00  0.00     0.002 A 
ATOM     34  C   UNL     1       3.802   0.904  -2.695  1.00  0.00     0.053 A 
ATOM     35  C   UNL     1       4.804   0.962  -3.671  1.00  0.00     0.019 A 
BRANCH  34  36
ATOM     36  C   UNL     1       2.428   1.090  -3.063  1.00  0.00     0.099 C 
ATOM     37  N   UNL     1       1.320   1.236  -3.377  1.00  0.00    -0.192 NA
ENDBRANCH  34  36
ENDBRANCH  26  30
ENDBRANCH  22  23
ENDBRANCH   5  22
TORSDOF 8
