REMARK SMILES Cc1nc(-c2cn3c(n2)-c2ccc(-c4cnn(C(C)(C)C(N)=O)c4)cc2OCC3)n(C(C)C)n1
REMARK SMILES IDX 26 1 25 2 13 3 12 4 11 5 10 6 8 7 5 8 6 9 9 10 7 11 4 12
REMARK SMILES IDX 30 13 34 14 2 15 3 16 1 17 31 18 32 19 33 20 29 21 27 23
REMARK SMILES IDX 28 24 14 26 24 27 15 28 17 29 16 30 18 31 19 32 20 33 21 34
REMARK SMILES IDX 22 35 23 36
REMARK H PARENT 22 37 22 38
REMARK Flexibility Score: 100.00
ROOT
ATOM      1  C   UNL     1       0.707  -0.373   1.131  1.00  0.00     0.130 A 
ATOM      2  C   UNL     1       2.076  -0.214   0.845  1.00  0.00     0.056 A 
ATOM      3  C   UNL     1       2.518   0.308  -0.375  1.00  0.00    -0.012 A 
ATOM      4  C   UNL     1       1.555   0.690  -1.309  1.00  0.00     0.010 A 
ATOM      5  C   UNL     1       0.192   0.558  -1.018  1.00  0.00     0.016 A 
ATOM      6  C   UNL     1      -0.268   0.036   0.208  1.00  0.00     0.060 A 
ENDROOT
BRANCH   6   7
ATOM      7  C   UNL     1      -1.729   0.008   0.409  1.00  0.00     0.144 A 
ATOM      8  C   UNL     1      -3.862   0.291   0.039  1.00  0.00     0.126 A 
ATOM      9  C   UNL     1      -3.768  -0.266   1.289  1.00  0.00     0.120 A 
ATOM     10  N   UNL     1      -2.602   0.439  -0.489  1.00  0.00    -0.225 NA
ATOM     11  N   UNL     1      -2.422  -0.448   1.508  1.00  0.00    -0.327 N 
BRANCH   8  12
ATOM     12  C   UNL     1      -5.146   0.703  -0.759  1.00  0.00     0.178 A 
ATOM     13  N   UNL     1      -6.465   0.669  -0.372  1.00  0.00    -0.242 N 
ATOM     14  N   UNL     1      -7.279   1.023  -1.393  1.00  0.00    -0.156 NA
ATOM     15  C   UNL     1      -6.399   1.324  -2.351  1.00  0.00     0.148 A 
ATOM     16  N   UNL     1      -5.093   1.152  -2.001  1.00  0.00    -0.210 NA
ATOM     17  C   UNL     1      -6.806   1.799  -3.687  1.00  0.00     0.092 C 
BRANCH  13  18
ATOM     18  C   UNL     1      -7.045   0.328   0.917  1.00  0.00     0.103 C 
ATOM     19  C   UNL     1      -7.373  -1.162   0.986  1.00  0.00     0.033 C 
ATOM     20  C   UNL     1      -8.280   1.169   1.261  1.00  0.00     0.033 C 
ENDBRANCH  13  18
ENDBRANCH   8  12
BRANCH  11  21
ATOM     21  C   UNL     1      -1.882  -1.051   2.708  1.00  0.00     0.165 CG0
ATOM     22  G   UNL     1      -0.603  -1.815   2.447  1.00  0.00     0.000 G0
ENDBRANCH  11  21
ENDBRANCH   6   7
BRANCH   1  23
ATOM     23  O   UNL     1       0.487  -0.902   2.375  1.00  0.00    -0.491 OA
BRANCH  23  24
ATOM     24  C   UNL     1      -0.603  -1.815   2.447  1.00  0.00     0.251 CG0
ATOM     25  G   UNL     1      -1.882  -1.051   2.708  1.00  0.00     0.000 G0
ENDBRANCH  23  24
ENDBRANCH   1  23
BRANCH   3  26
ATOM     26  C   UNL     1       3.933   0.462  -0.672  1.00  0.00     0.020 A 
ATOM     27  C   UNL     1       4.959  -0.242  -0.075  1.00  0.00     0.118 A 
ATOM     28  C   UNL     1       4.598   1.306  -1.588  1.00  0.00     0.143 A 
ATOM     29  N   UNL     1       6.129   0.167  -0.668  1.00  0.00    -0.257 N 
ATOM     30  N   UNL     1       5.925   1.159  -1.567  1.00  0.00    -0.180 NA
BRANCH  29  31
ATOM     31  C   UNL     1       7.506  -0.218  -0.292  1.00  0.00     0.135 C 
ATOM     32  C   UNL     1       7.853   0.497   1.028  1.00  0.00     0.047 C 
ATOM     33  C   UNL     1       8.526   0.199  -1.375  1.00  0.00     0.047 C 
BRANCH  31  34
ATOM     34  C   UNL     1       7.630  -1.748  -0.116  1.00  0.00     0.244 C 
ATOM     35  N   UNL     1       8.793  -2.221   0.438  1.00  0.00    -0.368 N 
ATOM     36  O   UNL     1       6.783  -2.573  -0.450  1.00  0.00    -0.273 OA
ATOM     37  H   UNL     1       8.894  -3.230   0.454  1.00  0.00     0.159 HD
ATOM     38  H   UNL     1       9.641  -1.673   0.492  1.00  0.00     0.159 HD
ENDBRANCH  31  34
ENDBRANCH  29  31
ENDBRANCH   3  26
TORSDOF 5
