REMARK SMILES Cc1nc(-c2ccc(OCC(C)C)c(C#N)c2)sc1C(=O)O
REMARK SMILES IDX 5 1 6 2 7 3 8 4 14 5 17 6 4 7 1 8 2 9 3 10 19 11 18 12 20 13
REMARK SMILES IDX 21 14 22 15 15 17 16 18 9 19 10 20 11 21 12 22 13 23
REMARK H PARENT 22 16
REMARK Flexibility Score: inf
ROOT
ATOM      1  C   UNL     1       1.178   0.264   0.629  1.00  0.00     0.012 A 
ATOM      2  C   UNL     1       0.369  -0.677  -0.028  1.00  0.00     0.015 A 
ATOM      3  C   UNL     1      -1.013  -0.748   0.197  1.00  0.00     0.048 A 
ATOM      4  C   UNL     1      -1.628   0.124   1.094  1.00  0.00     0.137 A 
ATOM      5  C   UNL     1      -0.837   1.075   1.757  1.00  0.00     0.095 A 
ATOM      6  C   UNL     1       0.550   1.140   1.526  1.00  0.00     0.034 A 
ENDROOT
BRANCH   1   7
ATOM      7  C   UNL     1       2.628   0.279   0.341  1.00  0.00     0.124 A 
ATOM      8  C   UNL     1       5.371  -1.166  -1.505  1.00  0.00     0.068 C 
ATOM      9  C   UNL     1       4.577  -0.309  -0.583  1.00  0.00     0.064 A 
ATOM     10  N   UNL     1       3.211  -0.546  -0.508  1.00  0.00    -0.240 NA
ATOM     11  C   UNL     1       5.032   0.718   0.229  1.00  0.00     0.135 A 
ATOM     12  S   UNL     1       3.707   1.385   1.093  1.00  0.00    -0.106 S 
BRANCH  11  13
ATOM     13  C   UNL     1       6.347   1.265   0.438  1.00  0.00     0.347 C 
ATOM     14  O   UNL     1       6.682   2.180   1.177  1.00  0.00    -0.245 OA
BRANCH  13  15
ATOM     15  O   UNL     1       7.288   0.643  -0.307  1.00  0.00    -0.477 OA
ATOM     16  H   UNL     1       8.110   1.116  -0.060  1.00  0.00     0.297 HD
ENDBRANCH  13  15
ENDBRANCH  11  13
ENDBRANCH   1   7
BRANCH   5  17
ATOM     17  C   UNL     1      -1.419   2.003   2.686  1.00  0.00     0.103 C 
ATOM     18  N   UNL     1      -1.847   2.771   3.445  1.00  0.00    -0.192 NA
ENDBRANCH   5  17
BRANCH   4  19
ATOM     19  O   UNL     1      -2.965   0.143   1.383  1.00  0.00    -0.492 OA
BRANCH  19  20
ATOM     20  C   UNL     1      -3.829  -0.843   0.815  1.00  0.00     0.232 C 
BRANCH  20  21
ATOM     21  C   UNL     1      -4.353  -0.412  -0.563  1.00  0.00     0.020 C 
ATOM     22  C   UNL     1      -5.234  -1.508  -1.161  1.00  0.00     0.011 C 
ATOM     23  C   UNL     1      -5.126   0.906  -0.477  1.00  0.00     0.011 C 
ENDBRANCH  20  21
ENDBRANCH  19  20
ENDBRANCH   4  19
TORSDOF 7
