REMARK SMILES CC(Cc1ccc2c(c1)OCO2)NCC(O)c1ccc(O)c(O)c1
REMARK SMILES IDX 14 1 13 2 2 4 1 5 3 6 4 7 5 8 9 9 6 10 8 11 7 12 10 13 12 14
REMARK SMILES IDX 11 15 15 16 16 17 17 19 18 20 24 21 19 22 22 23 20 24 23 25
REMARK SMILES IDX 21 27
REMARK H PARENT 13 3 16 18 23 26 21 28
REMARK Flexibility Score: inf
ROOT
ATOM      1  C   UNL     1       0.840  -0.677  -1.628  1.00  0.00     0.117 C 
ENDROOT
BRANCH   1   2
ATOM      2  N   UNL     1       0.181  -0.800  -0.317  1.00  0.00    -0.311 NA
ATOM      3  H   UNL     1      -0.416   0.018  -0.184  1.00  0.00     0.123 HD
BRANCH   2   4
ATOM      4  C   UNL     1      -0.657  -2.010  -0.204  1.00  0.00     0.055 C 
ATOM      5  C   UNL     1       0.207  -3.273  -0.114  1.00  0.00     0.024 C 
BRANCH   4   6
ATOM      6  C   UNL     1      -1.554  -1.927   1.058  1.00  0.00     0.054 C 
BRANCH   6   7
ATOM      7  C   UNL     1      -2.563  -0.798   1.024  1.00  0.00    -0.043 A 
ATOM      8  C   UNL     1      -2.389   0.332   1.857  1.00  0.00     0.008 A 
ATOM      9  C   UNL     1      -3.669  -0.860   0.161  1.00  0.00     0.054 A 
ATOM     10  C   UNL     1      -3.301   1.392   1.832  1.00  0.00     0.051 A 
ATOM     11  C   UNL     1      -4.551   0.200   0.159  1.00  0.00     0.166 A 
ATOM     12  C   UNL     1      -4.372   1.295   0.971  1.00  0.00     0.165 A 
ATOM     13  O   UNL     1      -5.666   0.303  -0.613  1.00  0.00    -0.454 OA
ATOM     14  O   UNL     1      -5.351   2.225   0.812  1.00  0.00    -0.454 OA
ATOM     15  C   UNL     1      -6.173   1.585  -0.187  1.00  0.00     0.468 C 
ENDBRANCH   6   7
ENDBRANCH   4   6
ENDBRANCH   2   4
ENDBRANCH   1   2
BRANCH   1  16
ATOM     16  C   UNL     1       1.625   0.650  -1.790  1.00  0.00     0.158 C 
BRANCH  16  17
ATOM     17  O   UNL     1       2.056   0.776  -3.150  1.00  0.00    -0.387 OA
ATOM     18  H   UNL     1       2.807   1.395  -3.153  1.00  0.00     0.211 HD
ENDBRANCH  16  17
BRANCH  16  19
ATOM     19  C   UNL     1       2.825   0.773  -0.871  1.00  0.00    -0.014 A 
ATOM     20  C   UNL     1       3.956  -0.044  -1.047  1.00  0.00     0.010 A 
ATOM     21  C   UNL     1       2.824   1.712   0.173  1.00  0.00     0.056 A 
ATOM     22  C   UNL     1       5.064   0.075  -0.204  1.00  0.00     0.050 A 
ATOM     23  C   UNL     1       3.932   1.828   1.013  1.00  0.00     0.157 A 
ATOM     24  C   UNL     1       5.048   1.014   0.824  1.00  0.00     0.157 A 
BRANCH  23  25
ATOM     25  O   UNL     1       3.935   2.742   2.030  1.00  0.00    -0.504 OA
ATOM     26  H   UNL     1       3.072   3.182   2.062  1.00  0.00     0.293 HD
ENDBRANCH  23  25
BRANCH  24  27
ATOM     27  O   UNL     1       6.124   1.145   1.656  1.00  0.00    -0.504 OA
ATOM     28  H   UNL     1       6.792   0.487   1.413  1.00  0.00     0.293 HD
ENDBRANCH  24  27
ENDBRANCH  16  19
ENDBRANCH   1  16
TORSDOF 9
