REMARK SMILES CNC(=O)c1ccc(N2C(=S)N(c3cnc(C#N)c(C(F)(F)F)c3)C(=O)C23CCC3)cc1F
REMARK SMILES IDX 9 1 10 2 11 3 12 4 25 5 26 6 27 7 28 8 29 9 30 10 8 11 5 12
REMARK SMILES IDX 6 13 32 14 7 15 31 16 33 17 3 18 1 19 2 20 4 22 13 23 24 24
REMARK SMILES IDX 14 25 19 26 15 27 16 28 20 29 21 30 22 31 23 32 17 33 18 34
REMARK H PARENT 2 21
REMARK Flexibility Score: inf
ROOT
ATOM      1  N   UNL     1      -0.080   0.461   0.449  1.00  0.00    -0.303 N 
ATOM      2  C   UNL     1       0.933  -0.429   0.936  1.00  0.00     0.188 C 
ATOM      3  S   UNL     1       0.675  -1.599   2.114  1.00  0.00    -0.039 S 
ATOM      4  N   UNL     1       2.137  -0.153   0.243  1.00  0.00    -0.253 N 
ATOM      5  C   UNL     1       1.968   0.815  -0.740  1.00  0.00     0.259 C 
ATOM      6  O   UNL     1       2.827   1.230  -1.514  1.00  0.00    -0.271 OA
ATOM      7  C   UNL     1       0.481   1.320  -0.644  1.00  0.00     0.127 C 
ATOM      8  C   UNL     1       0.294   2.853  -0.480  1.00  0.00     0.039 C 
ATOM      9  C   UNL     1       0.070   2.927  -2.004  1.00  0.00     0.006 C 
ATOM     10  C   UNL     1      -0.314   1.434  -1.973  1.00  0.00     0.039 C 
ENDROOT
BRANCH   1  11
ATOM     11  C   UNL     1      -1.471   0.179   0.506  1.00  0.00     0.047 A 
ATOM     12  C   UNL     1      -4.248  -0.321   0.576  1.00  0.00     0.075 A 
ATOM     13  C   UNL     1      -3.359  -1.293   0.094  1.00  0.00     0.019 A 
ATOM     14  C   UNL     1      -3.726   0.895   1.016  1.00  0.00     0.138 A 
ATOM     15  C   UNL     1      -1.982  -1.046   0.060  1.00  0.00     0.027 A 
ATOM     16  C   UNL     1      -2.353   1.151   0.980  1.00  0.00     0.066 A 
ATOM     17  F   UNL     1      -4.527   1.865   1.485  1.00  0.00    -0.206 F 
BRANCH  12  18
ATOM     18  C   UNL     1      -5.704  -0.638   0.585  1.00  0.00     0.253 C 
ATOM     19  C   UNL     1      -7.981   0.093   1.151  1.00  0.00     0.143 C 
ATOM     20  N   UNL     1      -6.553   0.279   1.165  1.00  0.00    -0.355 N 
ATOM     21  H   UNL     1      -6.188   1.171   1.479  1.00  0.00     0.163 HD
ATOM     22  O   UNL     1      -6.100  -1.685   0.082  1.00  0.00    -0.269 OA
ENDBRANCH  12  18
ENDBRANCH   1  11
BRANCH   4  23
ATOM     23  C   UNL     1       3.411  -0.761   0.467  1.00  0.00     0.070 A 
ATOM     24  C   UNL     1       4.278  -1.050  -0.597  1.00  0.00     0.044 A 
ATOM     25  C   UNL     1       3.899  -1.055   1.737  1.00  0.00     0.139 A 
ATOM     26  C   UNL     1       5.545  -1.623  -0.377  1.00  0.00     0.094 A 
ATOM     27  N   UNL     1       5.116  -1.602   1.992  1.00  0.00    -0.243 NA
ATOM     28  C   UNL     1       5.918  -1.881   0.934  1.00  0.00     0.152 A 
BRANCH  26  29
ATOM     29  C   UNL     1       6.468  -1.946  -1.511  1.00  0.00     0.419 C 
ATOM     30  F   UNL     1       7.638  -1.260  -1.443  1.00  0.00    -0.166 F 
ATOM     31  F   UNL     1       6.793  -3.264  -1.556  1.00  0.00    -0.166 F 
ATOM     32  F   UNL     1       5.939  -1.657  -2.732  1.00  0.00    -0.166 F 
ENDBRANCH  26  29
BRANCH  28  33
ATOM     33  C   UNL     1       7.190  -2.460   1.280  1.00  0.00     0.120 C 
ATOM     34  N   UNL     1       8.226  -2.926   1.520  1.00  0.00    -0.191 NA
ENDBRANCH  28  33
ENDBRANCH   4  23
TORSDOF 5
