REMARK SMILES Cc1cc(-c2ccccc2)nnc1NCCN1CCOCC1
REMARK SMILES IDX 15 1 14 2 13 4 1 5 2 6 3 7 4 8 12 9 11 10 5 11 6 12 10 13
REMARK SMILES IDX 7 14 9 15 8 16 16 17 17 18 18 19 22 20 19 21 21 22 20 23
REMARK H PARENT 14 3
REMARK Flexibility Score: inf
ROOT
ATOM      1  C   UNL     1      -1.539   0.169  -1.390  1.00  0.00     0.130 C 
ENDROOT
BRANCH   1   2
ATOM      2  N   UNL     1      -0.959  -0.521  -0.231  1.00  0.00    -0.367 N 
ATOM      3  H   UNL     1      -1.195  -1.509  -0.222  1.00  0.00     0.162 HD
BRANCH   2   4
ATOM      4  C   UNL     1       0.441  -0.392  -0.120  1.00  0.00     0.151 A 
ATOM      5  C   UNL     1       0.363  -1.799   1.984  1.00  0.00     0.048 C 
ATOM      6  C   UNL     1       1.102  -1.002   0.948  1.00  0.00    -0.005 A 
ATOM      7  C   UNL     1       2.496  -0.864   1.045  1.00  0.00     0.038 A 
ATOM      8  C   UNL     1       3.190  -0.117   0.102  1.00  0.00     0.093 A 
ATOM      9  N   UNL     1       1.145   0.332  -1.013  1.00  0.00    -0.132 NA
ATOM     10  N   UNL     1       2.516   0.463  -0.912  1.00  0.00    -0.148 NA
BRANCH   8  11
ATOM     11  C   UNL     1       4.652   0.082   0.122  1.00  0.00     0.002 A 
ATOM     12  C   UNL     1       5.370   0.254  -1.077  1.00  0.00     0.010 A 
ATOM     13  C   UNL     1       5.387   0.118   1.322  1.00  0.00     0.010 A 
ATOM     14  C   UNL     1       6.756   0.439  -1.080  1.00  0.00     0.001 A 
ATOM     15  C   UNL     1       6.774   0.303   1.323  1.00  0.00     0.001 A 
ATOM     16  C   UNL     1       7.458   0.461   0.121  1.00  0.00     0.000 A 
ENDBRANCH   8  11
ENDBRANCH   2   4
ENDBRANCH   1   2
BRANCH   1  17
ATOM     17  C   UNL     1      -3.079  -0.005  -1.437  1.00  0.00     0.106 C 
BRANCH  17  18
ATOM     18  N   UNL     1      -3.853   0.884  -0.551  1.00  0.00    -0.297 NA
ATOM     19  C   UNL     1      -3.499   0.719   0.875  1.00  0.00     0.113 C 
ATOM     20  C   UNL     1      -5.310   0.737  -0.751  1.00  0.00     0.113 C 
ATOM     21  C   UNL     1      -4.623   1.210   1.800  1.00  0.00     0.175 C 
ATOM     22  C   UNL     1      -5.997  -0.097   0.342  1.00  0.00     0.175 C 
ATOM     23  O   UNL     1      -5.830   0.446   1.658  1.00  0.00    -0.379 OA
ENDBRANCH  17  18
ENDBRANCH   1  17
TORSDOF 5
