REMARK SMILES N[C@@H](Cc1c[nH]c2ccc(O)cc12)C(=O)O
REMARK SMILES IDX 3 1 2 2 1 3 14 6 15 7 16 8 4 10 5 11 13 12 6 13 7 14 12 15
REMARK SMILES IDX 8 17 10 18 9 19 11 20
REMARK H PARENT 1 4 1 5 16 9 6 16 11 21
REMARK Flexibility Score: inf
ROOT
ATOM      1  C   UNL     1      -1.616  -0.073  -0.790  1.00  0.00     0.068 C 
ENDROOT
BRANCH   1   2
ATOM      2  C   UNL     1      -2.205   0.588   0.468  1.00  0.00     0.166 C 
BRANCH   2   3
ATOM      3  N   UNL     1      -2.669  -0.394   1.481  1.00  0.00    -0.318 NA
ATOM      4  H   UNL     1      -3.451  -0.918   1.085  1.00  0.00     0.119 HD
ATOM      5  H   UNL     1      -1.921  -1.069   1.640  1.00  0.00     0.119 HD
ENDBRANCH   2   3
BRANCH   2   6
ATOM      6  C   UNL     1      -3.381   1.456   0.025  1.00  0.00     0.320 C 
ATOM      7  O   UNL     1      -4.543   1.099  -0.107  1.00  0.00    -0.251 OA
BRANCH   6   8
ATOM      8  O   UNL     1      -3.018   2.718  -0.281  1.00  0.00    -0.480 OA
ATOM      9  H   UNL     1      -3.863   3.152  -0.524  1.00  0.00     0.296 HD
ENDBRANCH   6   8
ENDBRANCH   2   6
ENDBRANCH   1   2
BRANCH   1  10
ATOM     10  C   UNL     1      -0.358  -0.846  -0.531  1.00  0.00    -0.020 A 
ATOM     11  C   UNL     1      -0.238  -2.221  -0.466  1.00  0.00     0.087 A 
ATOM     12  C   UNL     1       0.950  -0.305  -0.314  1.00  0.00     0.006 A 
ATOM     13  N   UNL     1       1.072  -2.529  -0.214  1.00  0.00    -0.361 N 
ATOM     14  C   UNL     1       1.819  -1.379  -0.115  1.00  0.00     0.046 A 
ATOM     15  C   UNL     1       1.476   1.002  -0.267  1.00  0.00     0.056 A 
ATOM     16  H   UNL     1       1.443  -3.463  -0.118  1.00  0.00     0.166 HD
ATOM     17  C   UNL     1       3.188  -1.212   0.132  1.00  0.00     0.030 A 
ATOM     18  C   UNL     1       2.838   1.177  -0.022  1.00  0.00     0.116 A 
ATOM     19  C   UNL     1       3.687   0.094   0.176  1.00  0.00     0.048 A 
BRANCH  18  20
ATOM     20  O   UNL     1       3.308   2.459   0.016  1.00  0.00    -0.508 OA
ATOM     21  H   UNL     1       4.261   2.433   0.202  1.00  0.00     0.293 HD
ENDBRANCH  18  20
ENDBRANCH   1  10
TORSDOF 6
