REMARK SMILES COc1cc(N)c(Cl)cc1C(=O)NC1CCN(Cc2ccccc2)CC1
REMARK SMILES IDX 14 1 15 2 16 3 17 4 25 5 26 6 13 7 11 8 12 9 10 11 3 12 4 13
REMARK SMILES IDX 5 14 9 15 7 16 8 17 2 18 1 19 6 20 18 23 19 24 20 25 24 26
REMARK SMILES IDX 21 27 23 28 22 29
REMARK H PARENT 13 10 6 21 6 22
REMARK Flexibility Score: inf
ROOT
ATOM      1  C   UNL     1      -0.065  -0.027  -2.096  1.00  0.00     0.084 C 
ATOM      2  C   UNL     1      -0.953  -0.958  -1.265  1.00  0.00     0.040 C 
ATOM      3  C   UNL     1      -1.417  -0.291   0.032  1.00  0.00     0.087 C 
ATOM      4  N   UNL     1      -2.070   1.014  -0.158  1.00  0.00    -0.299 NA
ATOM      5  C   UNL     1      -1.208   1.919  -0.929  1.00  0.00     0.087 C 
ATOM      6  C   UNL     1      -0.723   1.344  -2.262  1.00  0.00     0.040 C 
ENDROOT
BRANCH   1   7
ATOM      7  N   UNL     1       1.264   0.100  -1.508  1.00  0.00    -0.349 N 
ATOM      8  C   UNL     1       2.240  -0.857  -1.676  1.00  0.00     0.255 C 
ATOM      9  O   UNL     1       2.126  -1.789  -2.466  1.00  0.00    -0.269 OA
ATOM     10  H   UNL     1       1.383   0.727  -0.718  1.00  0.00     0.164 HD
BRANCH   8  11
ATOM     11  C   UNL     1       3.484  -0.723  -0.850  1.00  0.00     0.083 A 
ATOM     12  C   UNL     1       3.588   0.064   0.316  1.00  0.00     0.133 A 
ATOM     13  C   UNL     1       4.812   0.109   1.004  1.00  0.00     0.074 A 
ATOM     14  C   UNL     1       5.914  -0.650   0.588  1.00  0.00     0.054 A 
ATOM     15  C   UNL     1       4.599  -1.451  -1.295  1.00  0.00     0.040 A 
ATOM     16  C   UNL     1       5.803  -1.397  -0.595  1.00  0.00     0.065 A 
ATOM     17  Cl  UNL     1       7.150  -2.298  -1.198  1.00  0.00    -0.082 Cl
BRANCH  12  18
ATOM     18  O   UNL     1       2.477   0.767   0.712  1.00  0.00    -0.496 OA
ATOM     19  C   UNL     1       2.487   1.351   2.011  1.00  0.00     0.278 C 
ENDBRANCH  12  18
BRANCH  14  20
ATOM     20  N   UNL     1       7.149  -0.476   1.241  1.00  0.00    -0.397 N 
ATOM     21  H   UNL     1       7.082  -0.282   2.235  1.00  0.00     0.156 HD
ATOM     22  H   UNL     1       7.813  -1.219   1.029  1.00  0.00     0.156 HD
ENDBRANCH  14  20
ENDBRANCH   8  11
ENDBRANCH   1   7
BRANCH   4  23
ATOM     23  C   UNL     1      -3.419   0.914  -0.741  1.00  0.00     0.120 C 
BRANCH  23  24
ATOM     24  C   UNL     1      -4.424   0.248   0.178  1.00  0.00    -0.034 A 
ATOM     25  C   UNL     1      -5.102  -0.911  -0.225  1.00  0.00     0.005 A 
ATOM     26  C   UNL     1      -4.702   0.791   1.441  1.00  0.00     0.005 A 
ATOM     27  C   UNL     1      -6.035  -1.515   0.620  1.00  0.00     0.000 A 
ATOM     28  C   UNL     1      -5.634   0.186   2.285  1.00  0.00     0.000 A 
ATOM     29  C   UNL     1      -6.301  -0.967   1.874  1.00  0.00     0.000 A 
ENDBRANCH  23  24
ENDBRANCH   4  23
TORSDOF 6
