REMARK SMILES CN1CCC2=C(C1)C(c1ccccc1)c1ccccc12
REMARK SMILES IDX 1 1 2 2 3 3 4 4 5 5 6 6 7 7 8 8 15 9 16 10 17 11 18 12 19 13
REMARK SMILES IDX 20 14 9 15 10 16 14 17 11 18 13 19 12 20
REMARK H PARENT
REMARK Flexibility Score: inf
ROOT
ATOM      1  C   UNL     1      -2.930  -2.986   1.167  1.00  0.00     0.105 C 
ATOM      2  N   UNL     1      -2.562  -1.588   0.958  1.00  0.00    -0.302 NA
ATOM      3  C   UNL     1      -3.099  -1.085  -0.323  1.00  0.00     0.089 C 
ATOM      4  C   UNL     1      -2.840   0.428  -0.510  1.00  0.00     0.051 C 
ATOM      5  C   UNL     1      -1.453   0.769  -0.107  1.00  0.00    -0.038 C 
ATOM      6  C   UNL     1      -0.656  -0.073   0.573  1.00  0.00    -0.040 C 
ATOM      7  C   UNL     1      -1.092  -1.426   1.027  1.00  0.00     0.116 C 
ATOM      8  C   UNL     1       0.720   0.503   0.840  1.00  0.00     0.077 C 
ATOM      9  C   UNL     1       0.579   1.856   0.173  1.00  0.00    -0.029 A 
ATOM     10  C   UNL     1       1.509   2.880   0.073  1.00  0.00     0.005 A 
ATOM     11  C   UNL     1       1.130   4.050  -0.589  1.00  0.00     0.000 A 
ATOM     12  C   UNL     1      -0.159   4.183  -1.132  1.00  0.00     0.001 A 
ATOM     13  C   UNL     1      -1.092   3.148  -1.023  1.00  0.00     0.009 A 
ATOM     14  C   UNL     1      -0.712   1.990  -0.368  1.00  0.00    -0.018 A 
ENDROOT
BRANCH   8  15
ATOM     15  C   UNL     1       1.853  -0.353   0.309  1.00  0.00    -0.036 A 
ATOM     16  C   UNL     1       2.774  -0.920   1.204  1.00  0.00     0.005 A 
ATOM     17  C   UNL     1       2.003  -0.616  -1.063  1.00  0.00     0.005 A 
ATOM     18  C   UNL     1       3.818  -1.723   0.740  1.00  0.00     0.000 A 
ATOM     19  C   UNL     1       3.048  -1.419  -1.525  1.00  0.00     0.000 A 
ATOM     20  C   UNL     1       3.955  -1.971  -0.624  1.00  0.00     0.000 A 
ENDBRANCH   8  15
TORSDOF 1
