REMARK SMILES COC(=O)[C@H]1[C@@H](c2ccc(I)cc2)C[C@@H]2CC[C@H]1N2CCCF
REMARK SMILES IDX 5 1 6 2 14 3 15 4 16 5 17 6 18 7 19 8 3 9 4 10 2 11 1 12
REMARK SMILES IDX 7 13 8 14 13 15 9 16 12 17 10 18 11 19 20 20 21 21 22 22
REMARK SMILES IDX 23 23
REMARK H PARENT
REMARK Flexibility Score: inf
ROOT
ATOM      1  C   UNL     1      -0.417  -0.224   0.989  1.00  0.00     0.124 C 
ATOM      2  C   UNL     1      -0.908  -1.047  -0.228  1.00  0.00     0.036 C 
ATOM      3  C   UNL     1       0.158  -1.135  -1.343  1.00  0.00     0.028 C 
ATOM      4  C   UNL     1       1.581  -1.369  -0.785  1.00  0.00     0.057 C 
ATOM      5  C   UNL     1       1.639  -2.564   0.178  1.00  0.00     0.021 C 
ATOM      6  C   UNL     1       1.341  -1.960   1.562  1.00  0.00     0.022 C 
ATOM      7  C   UNL     1       1.084  -0.466   1.289  1.00  0.00     0.071 C 
ATOM      8  N   UNL     1       1.990  -0.315   0.143  1.00  0.00    -0.296 NA
ENDROOT
BRANCH   1   9
ATOM      9  C   UNL     1      -0.704   1.266   0.919  1.00  0.00     0.310 C 
ATOM     10  O   UNL     1      -0.802   1.935  -0.100  1.00  0.00    -0.252 OA
BRANCH   9  11
ATOM     11  O   UNL     1      -0.817   1.768   2.185  1.00  0.00    -0.469 OA
ATOM     12  C   UNL     1      -1.074   3.173   2.231  1.00  0.00     0.282 C 
ENDBRANCH   9  11
ENDBRANCH   1   9
BRANCH   2  13
ATOM     13  C   UNL     1      -2.332  -0.735  -0.667  1.00  0.00    -0.044 A 
ATOM     14  C   UNL     1      -2.628   0.071  -1.774  1.00  0.00     0.005 A 
ATOM     15  C   UNL     1      -3.404  -1.257   0.079  1.00  0.00     0.005 A 
ATOM     16  C   UNL     1      -3.952   0.341  -2.134  1.00  0.00     0.015 A 
ATOM     17  C   UNL     1      -4.729  -0.992  -0.278  1.00  0.00     0.015 A 
ATOM     18  C   UNL     1      -4.998  -0.194  -1.386  1.00  0.00     0.013 A 
ATOM     19  I   UNL     1      -6.965   0.208  -1.920  1.00  0.00    -0.044 I 
ENDBRANCH   2  13
BRANCH   8  20
ATOM     20  C   UNL     1       2.171   1.027  -0.397  1.00  0.00     0.088 C 
BRANCH  20  21
ATOM     21  C   UNL     1       3.478   1.155  -1.188  1.00  0.00     0.050 C 
BRANCH  21  22
ATOM     22  C   UNL     1       4.708   0.964  -0.317  1.00  0.00     0.216 C 
ATOM     23  F   UNL     1       4.770   1.973   0.594  1.00  0.00    -0.251 F 
ENDBRANCH  21  22
ENDBRANCH  20  21
ENDBRANCH   8  20
TORSDOF 6
