REMARK SMILES CC[N+]1(C)[C@@H]2CC(OC(=O)[C@H](CO)c3ccccc3)C[C@H]1[C@@H]1O[C@@H]12
REMARK SMILES IDX 9 1 10 2 8 3 7 4 3 5 4 6 5 7 21 8 6 9 24 10 20 11 22 12
REMARK SMILES IDX 23 13 2 14 1 15 11 16 12 17 13 18 14 20 15 21 19 22 16 23
REMARK SMILES IDX 18 24 17 25
REMARK H PARENT 13 19
REMARK Flexibility Score: inf
ROOT
ATOM      1  C   UNL     1       1.854   0.823  -1.564  1.00  0.00     0.316 C 
ATOM      2  O   UNL     1       1.554   1.976  -1.855  1.00  0.00    -0.251 OA
ENDROOT
BRANCH   1   3
ATOM      3  O   UNL     1       0.937  -0.140  -1.242  1.00  0.00    -0.461 OA
BRANCH   3   4
ATOM      4  C   UNL     1      -0.442   0.268  -1.296  1.00  0.00     0.188 C 
ATOM      5  N   UNL     1      -2.702  -0.374   0.534  1.00  0.00    -0.317 N 
ATOM      6  C   UNL     1      -1.763  -1.172   1.438  1.00  0.00     0.335 C 
ATOM      7  C   UNL     1      -2.743  -0.816  -0.971  1.00  0.00     0.221 C 
ATOM      8  C   UNL     1      -2.291   1.118   0.279  1.00  0.00     0.221 C 
ATOM      9  C   UNL     1      -1.294  -1.013  -1.447  1.00  0.00     0.113 C 
ATOM     10  C   UNL     1      -3.341   0.353  -1.752  1.00  0.00     0.212 C 
ATOM     11  C   UNL     1      -0.789   1.140  -0.064  1.00  0.00     0.113 C 
ATOM     12  C   UNL     1      -3.050   1.583  -0.952  1.00  0.00     0.212 C 
ATOM     13  O   UNL     1      -4.386   1.119  -1.139  1.00  0.00    -0.357 OA
BRANCH   5  14
ATOM     14  C   UNL     1      -4.132  -0.549   1.144  1.00  0.00     0.260 C 
ATOM     15  C   UNL     1      -4.405   0.379   2.316  1.00  0.00     0.071 C 
ENDBRANCH   5  14
ENDBRANCH   3   4
ENDBRANCH   1   3
BRANCH   1  16
ATOM     16  C   UNL     1       3.280   0.317  -1.434  1.00  0.00     0.155 C 
BRANCH  16  17
ATOM     17  C   UNL     1       3.495  -0.894  -2.349  1.00  0.00     0.176 C 
BRANCH  17  18
ATOM     18  O   UNL     1       3.388  -0.522  -3.721  1.00  0.00    -0.395 OA
ATOM     19  H   UNL     1       4.218  -0.079  -3.979  1.00  0.00     0.210 HD
ENDBRANCH  17  18
ENDBRANCH  16  17
BRANCH  16  20
ATOM     20  C   UNL     1       3.631   0.095   0.030  1.00  0.00    -0.032 A 
ATOM     21  C   UNL     1       3.525  -1.158   0.655  1.00  0.00     0.005 A 
ATOM     22  C   UNL     1       4.036   1.196   0.804  1.00  0.00     0.005 A 
ATOM     23  C   UNL     1       3.835  -1.307   2.009  1.00  0.00     0.000 A 
ATOM     24  C   UNL     1       4.343   1.045   2.158  1.00  0.00     0.000 A 
ATOM     25  C   UNL     1       4.245  -0.207   2.759  1.00  0.00     0.000 A 
ENDBRANCH  16  20
ENDBRANCH   1  16
TORSDOF 7
