REMARK SMILES COc1ccsc1CNCC[C@@]1(c2ccccn2)CCOC2(CCCC2)C1
REMARK SMILES IDX 10 1 9 2 8 4 7 5 3 6 4 7 5 8 6 9 2 10 1 11 11 12 12 13 19 14
REMARK SMILES IDX 27 15 20 16 22 17 21 18 23 19 26 20 24 21 25 22 13 23 14 24
REMARK SMILES IDX 18 25 15 26 17 27 16 28
REMARK H PARENT 9 3
REMARK Flexibility Score: inf
ROOT
ATOM      1  C   UNL     1       0.690   0.028  -2.207  1.00  0.00     0.082 C 
ENDROOT
BRANCH   1   2
ATOM      2  N   UNL     1       1.716  -0.778  -1.558  1.00  0.00    -0.312 NA
ATOM      3  H   UNL     1       1.710  -0.585  -0.549  1.00  0.00     0.123 HD
BRANCH   2   4
ATOM      4  C   UNL     1       3.058  -0.468  -2.052  1.00  0.00     0.131 C 
BRANCH   4   5
ATOM      5  C   UNL     1       4.081  -1.217  -1.244  1.00  0.00     0.060 A 
ATOM      6  C   UNL     1       4.897  -0.741  -0.234  1.00  0.00     0.134 A 
ATOM      7  C   UNL     1       5.718  -1.769   0.320  1.00  0.00     0.058 A 
ATOM      8  C   UNL     1       5.509  -2.988  -0.290  1.00  0.00     0.069 A 
ATOM      9  S   UNL     1       4.342  -2.891  -1.531  1.00  0.00    -0.144 S 
BRANCH   6  10
ATOM     10  O   UNL     1       4.834   0.573   0.109  1.00  0.00    -0.496 OA
ATOM     11  C   UNL     1       5.767   0.978   1.103  1.00  0.00     0.278 C 
ENDBRANCH   6  10
ENDBRANCH   4   5
ENDBRANCH   2   4
ENDBRANCH   1   2
BRANCH   1  12
ATOM     12  C   UNL     1      -0.728  -0.334  -1.722  1.00  0.00     0.029 C 
BRANCH  12  13
ATOM     13  C   UNL     1      -1.098  -0.005  -0.232  1.00  0.00     0.019 C 
ATOM     14  C   UNL     1      -0.820   1.478   0.109  1.00  0.00     0.042 C 
ATOM     15  C   UNL     1      -2.627  -0.241  -0.015  1.00  0.00     0.049 C 
ATOM     16  C   UNL     1      -1.645   2.443  -0.734  1.00  0.00     0.162 C 
ATOM     17  C   UNL     1      -3.515   0.981  -0.313  1.00  0.00     0.069 C 
ATOM     18  O   UNL     1      -2.864   1.882  -1.213  1.00  0.00    -0.375 OA
ATOM     19  C   UNL     1      -4.041   1.703   0.942  1.00  0.00     0.035 C 
ATOM     20  C   UNL     1      -4.840   0.558  -0.971  1.00  0.00     0.035 C 
ATOM     21  C   UNL     1      -5.244   2.502   0.446  1.00  0.00     0.003 C 
ATOM     22  C   UNL     1      -5.762   1.762  -0.788  1.00  0.00     0.003 C 
BRANCH  13  23
ATOM     23  C   UNL     1      -0.315  -0.938   0.710  1.00  0.00     0.047 A 
ATOM     24  C   UNL     1      -0.587  -2.309   0.768  1.00  0.00     0.024 A 
ATOM     25  N   UNL     1       0.705  -0.389   1.422  1.00  0.00    -0.261 NA
ATOM     26  C   UNL     1       0.196  -3.128   1.579  1.00  0.00     0.003 A 
ATOM     27  C   UNL     1       1.450  -1.206   2.200  1.00  0.00     0.111 A 
ATOM     28  C   UNL     1       1.237  -2.568   2.310  1.00  0.00     0.020 A 
ENDBRANCH  13  23
ENDBRANCH  12  13
ENDBRANCH   1  12
TORSDOF 7
