REMARK SMILES CN1CCN(c2ccc(-c3ccn4c(-c5ccnc6c(F)cccc56)cnc4c3)cc2)CC1
REMARK SMILES IDX 10 1 29 2 28 3 27 4 26 5 14 6 13 7 12 8 11 9 9 10 6 11 7 12
REMARK SMILES IDX 31 13 8 14 30 15 5 16 1 17 2 18 3 19 33 20 4 21 32 22 15 23
REMARK SMILES IDX 16 24 25 25 17 26 19 27 24 28 18 29 20 30 23 31 21 32 22 33
REMARK H PARENT
REMARK Flexibility Score: inf
ROOT
ATOM      1  C   UNL     1      -0.606  -0.474   0.299  1.00  0.00    -0.013 C 
ATOM      2  C   UNL     1      -1.074  -1.581   0.925  1.00  0.00     0.056 C 
ATOM      3  C   UNL     1      -2.460  -1.905   0.887  1.00  0.00     0.137 A 
ATOM      4  N   UNL     1      -3.124  -2.906   1.425  1.00  0.00    -0.236 NA
ATOM      5  C   UNL     1      -4.428  -2.715   1.051  1.00  0.00     0.140 A 
ATOM      6  C   UNL     1      -4.578  -1.576   0.280  1.00  0.00     0.073 A 
ATOM      7  N   UNL     1      -3.300  -1.054   0.174  1.00  0.00    -0.300 N 
ATOM      8  C   UNL     1      -2.842   0.088  -0.484  1.00  0.00     0.094 C 
ATOM      9  C   UNL     1      -1.535   0.394  -0.436  1.00  0.00     0.027 C 
ENDROOT
BRANCH   1  10
ATOM     10  C   UNL     1       0.842  -0.185   0.374  1.00  0.00    -0.018 A 
ATOM     11  C   UNL     1       3.623   0.404   0.493  1.00  0.00     0.037 A 
ATOM     12  C   UNL     1       2.970   0.225  -0.732  1.00  0.00     0.026 A 
ATOM     13  C   UNL     1       2.851   0.274   1.656  1.00  0.00     0.026 A 
ATOM     14  C   UNL     1       1.600  -0.065  -0.794  1.00  0.00     0.011 A 
ATOM     15  C   UNL     1       1.482  -0.011   1.604  1.00  0.00     0.011 A 
BRANCH  11  16
ATOM     16  N   UNL     1       4.987   0.689   0.612  1.00  0.00    -0.369 N 
ATOM     17  C   UNL     1       8.992   0.563  -0.492  1.00  0.00     0.105 C 
ATOM     18  N   UNL     1       7.709  -0.128  -0.392  1.00  0.00    -0.303 NA
ATOM     19  C   UNL     1       6.670   0.509  -1.232  1.00  0.00     0.105 C 
ATOM     20  C   UNL     1       7.280  -0.214   1.022  1.00  0.00     0.105 C 
ATOM     21  C   UNL     1       5.682   1.417  -0.467  1.00  0.00     0.132 C 
ATOM     22  C   UNL     1       5.760  -0.437   1.194  1.00  0.00     0.132 C 
ENDBRANCH  11  16
ENDBRANCH   1  10
BRANCH   6  23
ATOM     23  C   UNL     1      -5.773  -1.012  -0.342  1.00  0.00     0.011 A 
ATOM     24  C   UNL     1      -6.219  -1.593  -1.530  1.00  0.00     0.031 A 
ATOM     25  C   UNL     1      -6.482   0.079   0.222  1.00  0.00     0.013 A 
ATOM     26  C   UNL     1      -7.339  -1.065  -2.132  1.00  0.00     0.112 A 
ATOM     27  C   UNL     1      -7.622   0.539  -0.475  1.00  0.00     0.107 A 
ATOM     28  C   UNL     1      -6.113   0.715   1.438  1.00  0.00     0.011 A 
ATOM     29  N   UNL     1      -8.032  -0.025  -1.634  1.00  0.00    -0.253 NA
ATOM     30  C   UNL     1      -8.332   1.609   0.072  1.00  0.00     0.149 A 
ATOM     31  C   UNL     1      -6.847   1.781   1.953  1.00  0.00     0.004 A 
ATOM     32  F   UNL     1      -9.424   2.075  -0.557  1.00  0.00    -0.205 F 
ATOM     33  C   UNL     1      -7.962   2.229   1.265  1.00  0.00     0.041 A 
ENDBRANCH   6  23
TORSDOF 3
