REMARK SMILES N#Cc1cc(Cl)cc(Oc2c(Cl)ccc3c2cnn3Cc2n[nH]c3ncccc23)c1
REMARK SMILES IDX 10 1 16 2 17 3 18 4 19 5 15 6 14 7 13 8 11 9 12 10 9 11 8 12
REMARK SMILES IDX 6 13 5 14 7 15 4 16 3 17 30 18 2 19 1 20 20 21 21 22 22 23
REMARK SMILES IDX 29 24 23 25 24 26 28 27 25 29 27 30 26 31
REMARK H PARENT 23 28
REMARK Flexibility Score: inf
ROOT
ATOM      1  C   UNL     1      -1.199   1.811  -0.300  1.00  0.00     0.157 A 
ATOM      2  C   UNL     1      -0.623   0.527  -0.201  1.00  0.00     0.064 A 
ATOM      3  C   UNL     1      -0.852  -0.635   0.566  1.00  0.00     0.147 A 
ATOM      4  N   UNL     1      -0.016  -1.631   0.270  1.00  0.00    -0.180 NA
ATOM      5  N   UNL     1       0.780  -1.102  -0.690  1.00  0.00    -0.259 N 
ATOM      6  C   UNL     1       0.461   0.199  -1.014  1.00  0.00     0.073 A 
ATOM      7  C   UNL     1       1.022   1.110  -1.922  1.00  0.00     0.030 A 
ATOM      8  C   UNL     1       0.464   2.392  -1.981  1.00  0.00     0.027 A 
ATOM      9  C   UNL     1      -0.623   2.744  -1.179  1.00  0.00     0.084 A 
ATOM     10  Cl  UNL     1      -1.260   4.344  -1.317  1.00  0.00    -0.080 Cl
ENDROOT
BRANCH   1  11
ATOM     11  O   UNL     1      -2.269   2.195   0.492  1.00  0.00    -0.455 OA
BRANCH  11  12
ATOM     12  C   UNL     1      -3.454   1.521   0.286  1.00  0.00     0.130 A 
ATOM     13  Cl  UNL     1      -5.762   0.134  -2.665  1.00  0.00    -0.084 Cl
ATOM     14  C   UNL     1      -5.163   0.539  -1.102  1.00  0.00     0.046 A 
ATOM     15  C   UNL     1      -3.945   1.208  -0.984  1.00  0.00     0.067 A 
ATOM     16  C   UNL     1      -5.895   0.188   0.031  1.00  0.00     0.040 A 
ATOM     17  C   UNL     1      -5.413   0.524   1.299  1.00  0.00     0.057 A 
ATOM     18  C   UNL     1      -4.194   1.199   1.425  1.00  0.00     0.066 A 
BRANCH  17  19
ATOM     19  C   UNL     1      -6.161   0.170   2.469  1.00  0.00     0.099 C 
ATOM     20  N   UNL     1      -6.767  -0.119   3.415  1.00  0.00    -0.192 NA
ENDBRANCH  17  19
ENDBRANCH  11  12
ENDBRANCH   1  11
BRANCH   5  21
ATOM     21  C   UNL     1       1.819  -1.926  -1.293  1.00  0.00     0.203 C 
BRANCH  21  22
ATOM     22  C   UNL     1       3.176  -1.478  -0.870  1.00  0.00     0.093 A 
ATOM     23  N   UNL     1       4.057  -1.031  -1.784  1.00  0.00    -0.176 NA
ATOM     24  C   UNL     1       3.721  -1.466   0.445  1.00  0.00     0.044 A 
ATOM     25  N   UNL     1       5.157  -0.748  -1.052  1.00  0.00    -0.260 N 
ATOM     26  C   UNL     1       5.009  -0.978   0.283  1.00  0.00     0.155 A 
ATOM     27  C   UNL     1       3.311  -1.799   1.745  1.00  0.00     0.015 A 
ATOM     28  H   UNL     1       5.992  -0.410  -1.515  1.00  0.00     0.192 HD
ATOM     29  N   UNL     1       5.940  -0.778   1.233  1.00  0.00    -0.237 NA
ATOM     30  C   UNL     1       4.234  -1.601   2.775  1.00  0.00     0.021 A 
ATOM     31  C   UNL     1       5.496  -1.102   2.470  1.00  0.00     0.113 A 
ENDBRANCH  21  22
ENDBRANCH   5  21
TORSDOF 5
