REMARK SMILES Cc1ncc([N+](=O)[O-])n1CC(C)O
REMARK SMILES IDX 10 1 9 2 1 3 2 4 3 5 4 6 5 7 6 8 7 9 8 10 11 11 12 12 13 13
REMARK H PARENT 13 14
REMARK Flexibility Score: inf
ROOT
ATOM      1  C   UNL     1       0.352   0.030   1.190  1.00  0.00     0.275 C 
ENDROOT
BRANCH   1   2
ATOM      2  N   UNL     1      -0.755   0.122   0.251  1.00  0.00    -0.208 N 
ATOM      3  C   UNL     1      -0.514   2.602  -0.267  1.00  0.00     0.117 C 
ATOM      4  C   UNL     1      -1.124   1.260  -0.452  1.00  0.00     0.193 A 
ATOM      5  N   UNL     1      -2.089   0.990  -1.312  1.00  0.00    -0.213 NA
ATOM      6  C   UNL     1      -2.394  -0.334  -1.140  1.00  0.00     0.218 A 
ATOM      7  C   UNL     1      -1.615  -0.869  -0.149  1.00  0.00     0.342 A 
BRANCH   7   8
ATOM      8  N   UNL     1      -1.663  -2.188   0.373  1.00  0.00    -0.026 N 
ATOM      9  O   UNL     1      -1.972  -3.084  -0.421  1.00  0.00    -0.358 OA
ATOM     10  O   UNL     1      -1.465  -2.326   1.586  1.00  0.00    -0.358 OA
ENDBRANCH   7   8
ENDBRANCH   1   2
BRANCH   1  11
ATOM     11  C   UNL     1       1.617  -0.642   0.627  1.00  0.00     0.153 C 
ATOM     12  C   UNL     1       2.234   0.100  -0.551  1.00  0.00     0.042 C 
BRANCH  11  13
ATOM     13  O   UNL     1       1.331  -1.981   0.235  1.00  0.00    -0.389 OA
ATOM     14  H   UNL     1       2.164  -2.403  -0.043  1.00  0.00     0.211 HD
ENDBRANCH  11  13
ENDBRANCH   1  11
TORSDOF 4
