REMARK SMILES C=C1CCN([C@H](C)[C@](O)(Cn2cncn2)c2ccc(F)cc2F)CC1
REMARK SMILES IDX 8 1 6 2 7 3 5 4 1 5 2 6 3 7 25 8 4 9 24 10 9 11 10 13 11 14
REMARK SMILES IDX 12 15 15 16 13 17 14 18 16 19 17 20 22 21 18 22 21 23 23 24
REMARK SMILES IDX 19 25 20 26
REMARK H PARENT 9 12
REMARK Flexibility Score: inf
ROOT
ATOM      1  C   UNL     1       1.618   0.062   0.465  1.00  0.00     0.127 C 
ENDROOT
BRANCH   1   2
ATOM      2  C   UNL     1       0.137   0.214   1.021  1.00  0.00     0.092 C 
ATOM      3  C   UNL     1      -0.174   1.568   1.685  1.00  0.00     0.028 C 
BRANCH   2   4
ATOM      4  N   UNL     1      -0.911  -0.245   0.077  1.00  0.00    -0.297 NA
ATOM      5  C   UNL     1      -5.130  -0.050  -0.915  1.00  0.00     0.008 C 
ATOM      6  C   UNL     1      -3.833  -0.095  -0.575  1.00  0.00    -0.075 C 
ATOM      7  C   UNL     1      -2.945   1.125  -0.593  1.00  0.00     0.046 C 
ATOM      8  C   UNL     1      -3.150  -1.372  -0.147  1.00  0.00     0.046 C 
ATOM      9  C   UNL     1      -1.478   0.741  -0.856  1.00  0.00     0.089 C 
ATOM     10  C   UNL     1      -1.938  -1.069   0.748  1.00  0.00     0.089 C 
ENDBRANCH   2   4
ENDBRANCH   1   2
BRANCH   1  11
ATOM     11  O   UNL     1       2.542   0.475   1.504  1.00  0.00    -0.381 OA
ATOM     12  H   UNL     1       2.657   1.449   1.429  1.00  0.00     0.212 HD
ENDBRANCH   1  11
BRANCH   1  13
ATOM     13  C   UNL     1       1.941   0.864  -0.827  1.00  0.00     0.188 C 
BRANCH  13  14
ATOM     14  N   UNL     1       1.948   2.308  -0.707  1.00  0.00    -0.250 N 
ATOM     15  C   UNL     1       1.476   3.217  -1.602  1.00  0.00     0.219 A 
ATOM     16  N   UNL     1       2.537   2.924   0.340  1.00  0.00    -0.160 NA
ATOM     17  N   UNL     1       1.707   4.430  -1.158  1.00  0.00    -0.224 NA
ATOM     18  C   UNL     1       2.362   4.210   0.019  1.00  0.00     0.246 A 
ENDBRANCH  13  14
ENDBRANCH   1  13
BRANCH   1  19
ATOM     19  C   UNL     1       1.903  -1.451   0.273  1.00  0.00     0.023 A 
ATOM     20  C   UNL     1       2.388  -2.224   1.352  1.00  0.00     0.013 A 
ATOM     21  C   UNL     1       1.645  -2.129  -0.930  1.00  0.00     0.132 A 
ATOM     22  C   UNL     1       2.619  -3.596   1.219  1.00  0.00     0.040 A 
ATOM     23  C   UNL     1       1.872  -3.497  -1.070  1.00  0.00     0.078 A 
ATOM     24  F   UNL     1       1.166  -1.479  -1.998  1.00  0.00    -0.206 F 
ATOM     25  C   UNL     1       2.359  -4.218   0.007  1.00  0.00     0.126 A 
ATOM     26  F   UNL     1       2.577  -5.533  -0.122  1.00  0.00    -0.207 F 
ENDBRANCH   1  19
TORSDOF 6
