REMARK SMILES CN(C)C(=O)Oc1ccc[n+](C)c1
REMARK SMILES IDX 6 1 4 2 1 3 2 4 3 5 5 6 7 7 8 8 13 9 9 10 11 11 10 12 12 13
REMARK H PARENT
REMARK Flexibility Score: inf
ROOT
ATOM      1  O   UNL     1      -0.743   0.065   0.885  1.00  0.00    -0.404 OA
ENDROOT
BRANCH   1   2
ATOM      2  C   UNL     1      -1.412  -0.547  -0.179  1.00  0.00     0.414 C 
ATOM      3  C   UNL     1      -3.295  -0.735   1.450  1.00  0.00     0.150 C 
ATOM      4  N   UNL     1      -2.670  -1.008   0.165  1.00  0.00    -0.314 N 
ATOM      5  C   UNL     1      -3.534  -1.548  -0.871  1.00  0.00     0.150 C 
ATOM      6  O   UNL     1      -0.912  -0.662  -1.295  1.00  0.00    -0.224 OA
ENDBRANCH   1   2
BRANCH   1   7
ATOM      7  C   UNL     1       0.543   0.576   0.644  1.00  0.00     0.196 A 
ATOM      8  C   UNL     1       0.838   1.820   1.184  1.00  0.00     0.060 A 
ATOM      9  C   UNL     1       1.519  -0.126  -0.059  1.00  0.00     0.355 A 
ATOM     10  C   UNL     1       2.101   2.360   0.975  1.00  0.00     0.075 A 
ATOM     11  N   UNL     1       2.742   0.422  -0.257  1.00  0.00    -0.205 N 
ATOM     12  C   UNL     1       3.043   1.643   0.241  1.00  0.00     0.308 A 
ATOM     13  C   UNL     1       3.734  -0.327  -1.045  1.00  0.00     0.439 C 
ENDBRANCH   1   7
TORSDOF 2
