REMARK SMILES O=C1/C(=C2\Nc3ccc(S(=O)(=O)O)cc3C2=O)Nc2ccc(S(=O)(=O)O)cc21
REMARK SMILES IDX 1 1 2 2 3 3 4 4 5 5 6 6 7 7 8 8 9 9 14 10 15 11 16 12 17 13
REMARK SMILES IDX 18 14 19 15 20 16 21 17 22 18 27 19 28 20 23 23 24 24 25 25
REMARK SMILES IDX 26 26 10 28 11 29 12 30 13 31
REMARK H PARENT 5 21 18 22 26 27 13 32
REMARK Flexibility Score: inf
ROOT
ATOM      1  O   UNL     1      -1.266   0.898   2.153  1.00  0.00    -0.287 OA
ATOM      2  C   UNL     1      -1.569   0.420   1.078  1.00  0.00     0.213 C 
ATOM      3  C   UNL     1      -0.658  -0.000  -0.049  1.00  0.00     0.115 C 
ATOM      4  C   UNL     1       0.667   0.006   0.110  1.00  0.00     0.115 C 
ATOM      5  N   UNL     1       1.460   0.384   1.176  1.00  0.00    -0.350 N 
ATOM      6  C   UNL     1       2.793   0.380   0.783  1.00  0.00     0.050 A 
ATOM      7  C   UNL     1       3.908   0.708   1.525  1.00  0.00     0.028 A 
ATOM      8  C   UNL     1       5.167   0.548   0.930  1.00  0.00     0.025 A 
ATOM      9  C   UNL     1       5.283   0.038  -0.383  1.00  0.00     0.095 A 
ATOM     10  C   UNL     1       4.159  -0.315  -1.134  1.00  0.00     0.037 A 
ATOM     11  C   UNL     1       2.938  -0.140  -0.516  1.00  0.00     0.049 A 
ATOM     12  C   UNL     1       1.579  -0.417  -1.016  1.00  0.00     0.213 C 
ATOM     13  O   UNL     1       1.276  -0.878  -2.097  1.00  0.00    -0.287 OA
ATOM     14  N   UNL     1      -1.452  -0.381  -1.114  1.00  0.00    -0.350 N 
ATOM     15  C   UNL     1      -2.783  -0.394  -0.711  1.00  0.00     0.050 A 
ATOM     16  C   UNL     1      -3.898  -0.732  -1.449  1.00  0.00     0.028 A 
ATOM     17  C   UNL     1      -5.157  -0.584  -0.849  1.00  0.00     0.025 A 
ATOM     18  C   UNL     1      -5.270  -0.086   0.469  1.00  0.00     0.095 A 
ATOM     19  C   UNL     1      -4.147   0.288   1.210  1.00  0.00     0.037 A 
ATOM     20  C   UNL     1      -2.928   0.125   0.587  1.00  0.00     0.049 A 
ATOM     21  H   UNL     1       1.065   0.926   1.936  1.00  0.00     0.167 HD
ATOM     22  H   UNL     1      -1.057  -0.943  -1.860  1.00  0.00     0.167 HD
ENDROOT
BRANCH  18  23
ATOM     23  S   UNL     1      -6.880   0.116   1.182  1.00  0.00     0.294 S 
ATOM     24  O   UNL     1      -7.806   0.434   0.117  1.00  0.00    -0.194 OA
ATOM     25  O   UNL     1      -7.096  -0.990   2.085  1.00  0.00    -0.194 OA
BRANCH  23  26
ATOM     26  O   UNL     1      -6.774   1.466   2.058  1.00  0.00    -0.282 OA
ATOM     27  H   UNL     1      -7.548   2.024   1.834  1.00  0.00     0.234 HD
ENDBRANCH  23  26
ENDBRANCH  18  23
BRANCH   9  28
ATOM     28  S   UNL     1       6.891  -0.129  -1.107  1.00  0.00     0.294 S 
ATOM     29  O   UNL     1       7.732   0.924  -0.580  1.00  0.00    -0.194 OA
ATOM     30  O   UNL     1       7.261  -1.522  -1.027  1.00  0.00    -0.194 OA
BRANCH  28  31
ATOM     31  O   UNL     1       6.682   0.245  -2.662  1.00  0.00    -0.282 OA
ATOM     32  H   UNL     1       7.395   0.868  -2.914  1.00  0.00     0.234 HD
ENDBRANCH  28  31
ENDBRANCH   9  28
TORSDOF 4
