REMARK SMILES Cc1[nH]c2ccccc2c1CCNCc1ccc(/C=C/C(=O)NO)cc1
REMARK SMILES IDX 14 1 13 2 12 4 11 5 10 6 1 7 2 8 3 9 4 10 9 12 5 13 8 14
REMARK SMILES IDX 6 15 7 16 15 17 16 18 26 19 17 20 25 21 18 22 19 23 20 24
REMARK SMILES IDX 21 25 22 26 23 27 24 29
REMARK H PARENT 13 3 3 11 23 28 24 30
REMARK Flexibility Score: inf
ROOT
ATOM      1  C   UNL     1       0.291  -0.054   2.607  1.00  0.00     0.116 C 
ENDROOT
BRANCH   1   2
ATOM      2  N   UNL     1      -0.716  -0.991   2.105  1.00  0.00    -0.312 NA
ATOM      3  H   UNL     1      -0.247  -1.819   1.739  1.00  0.00     0.123 HD
BRANCH   2   4
ATOM      4  C   UNL     1      -1.552  -0.397   1.057  1.00  0.00     0.086 C 
BRANCH   4   5
ATOM      5  C   UNL     1      -2.577  -1.412   0.528  1.00  0.00     0.053 C 
BRANCH   5   6
ATOM      6  C   UNL     1      -3.480  -0.806  -0.504  1.00  0.00    -0.018 A 
ATOM      7  C   UNL     1      -2.100  -1.201  -2.686  1.00  0.00     0.064 C 
ATOM      8  C   UNL     1      -3.246  -0.728  -1.869  1.00  0.00     0.016 A 
ATOM      9  N   UNL     1      -4.324  -0.099  -2.440  1.00  0.00    -0.358 N 
ATOM     10  C   UNL     1      -5.249   0.245  -1.485  1.00  0.00     0.046 A 
ATOM     11  H   UNL     1      -4.429   0.095  -3.427  1.00  0.00     0.166 HD
ATOM     12  C   UNL     1      -4.748  -0.187  -0.258  1.00  0.00     0.003 A 
ATOM     13  C   UNL     1      -6.484   0.896  -1.616  1.00  0.00     0.026 A 
ATOM     14  C   UNL     1      -5.517   0.047   0.902  1.00  0.00     0.010 A 
ATOM     15  C   UNL     1      -7.224   1.116  -0.452  1.00  0.00     0.002 A 
ATOM     16  C   UNL     1      -6.748   0.700   0.793  1.00  0.00     0.001 A 
ENDBRANCH   5   6
ENDBRANCH   4   5
ENDBRANCH   2   4
ENDBRANCH   1   2
BRANCH   1  17
ATOM     17  C   UNL     1       1.519   0.020   1.728  1.00  0.00    -0.034 A 
ATOM     18  C   UNL     1       2.520  -0.957   1.831  1.00  0.00     0.005 A 
ATOM     19  C   UNL     1       1.664   1.043   0.780  1.00  0.00     0.005 A 
ATOM     20  C   UNL     1       3.645  -0.912   1.004  1.00  0.00     0.008 A 
ATOM     21  C   UNL     1       2.789   1.087  -0.048  1.00  0.00     0.008 A 
ATOM     22  C   UNL     1       3.782   0.108   0.059  1.00  0.00    -0.025 A 
BRANCH  22  23
ATOM     23  C   UNL     1       4.961   0.176  -0.803  1.00  0.00     0.014 C 
ATOM     24  C   UNL     1       6.135   0.623  -0.337  1.00  0.00     0.074 C 
BRANCH  24  25
ATOM     25  C   UNL     1       7.300   0.709  -1.245  1.00  0.00     0.267 C 
ATOM     26  O   UNL     1       7.289   0.307  -2.402  1.00  0.00    -0.268 OA
ATOM     27  N   UNL     1       8.403   1.274  -0.667  1.00  0.00    -0.234 N 
ATOM     28  H   UNL     1       8.494   1.527   0.309  1.00  0.00     0.199 HD
BRANCH  27  29
ATOM     29  O   UNL     1       9.576   1.321  -1.450  1.00  0.00    -0.288 OA
ATOM     30  H   UNL     1       9.303   0.840  -2.264  1.00  0.00     0.246 HD
ENDBRANCH  27  29
ENDBRANCH  24  25
ENDBRANCH  22  23
ENDBRANCH   1  17
TORSDOF 8
