REMARK SMILES Cc1ccc(F)c(NC(=O)Nc2ccc(-c3cccc4[nH]nc(N)c34)cc2)c1
REMARK SMILES IDX 12 1 13 2 14 3 15 4 26 5 27 6 11 7 8 8 9 9 10 11 7 13 1 14
REMARK SMILES IDX 2 15 28 16 3 17 4 18 5 19 6 20 16 21 25 22 17 23 23 24 20 25
REMARK SMILES IDX 18 26 22 27 21 28 19 29 24 31
REMARK H PARENT 8 10 11 12 21 30 24 32 24 33
REMARK Flexibility Score: inf
ROOT
ATOM      1  C   UNL     1      -0.165   0.863  -0.046  1.00  0.00     0.042 A 
ATOM      2  C   UNL     1      -1.129   1.641  -0.698  1.00  0.00     0.027 A 
ATOM      3  C   UNL     1      -2.493   1.392  -0.513  1.00  0.00     0.011 A 
ATOM      4  C   UNL     1      -2.927   0.360   0.328  1.00  0.00    -0.017 A 
ATOM      5  C   UNL     1      -1.958  -0.407   0.987  1.00  0.00     0.011 A 
ATOM      6  C   UNL     1      -0.591  -0.158   0.803  1.00  0.00     0.027 A 
ENDROOT
BRANCH   1   7
ATOM      7  N   UNL     1       1.188   1.182  -0.282  1.00  0.00    -0.308 N 
ATOM      8  N   UNL     1       3.460   1.172  -0.211  1.00  0.00    -0.305 N 
ATOM      9  C   UNL     1       2.310   0.485   0.141  1.00  0.00     0.323 C 
ATOM     10  H   UNL     1       3.350   2.128  -0.521  1.00  0.00     0.171 HD
ATOM     11  O   UNL     1       2.291  -0.584   0.736  1.00  0.00    -0.248 OA
ATOM     12  H   UNL     1       1.355   1.939  -0.927  1.00  0.00     0.171 HD
BRANCH   8  13
ATOM     13  C   UNL     1       4.801   0.767  -0.031  1.00  0.00     0.079 A 
ATOM     14  C   UNL     1       6.967  -2.182   1.017  1.00  0.00     0.044 C 
ATOM     15  C   UNL     1       6.559  -0.809   0.564  1.00  0.00    -0.049 A 
ATOM     16  C   UNL     1       5.196  -0.495   0.415  1.00  0.00     0.032 A 
ATOM     17  C   UNL     1       7.530   0.145   0.233  1.00  0.00     0.006 A 
ATOM     18  C   UNL     1       7.147   1.405  -0.219  1.00  0.00     0.042 A 
ATOM     19  C   UNL     1       5.794   1.703  -0.346  1.00  0.00     0.146 A 
ATOM     20  F   UNL     1       5.436   2.921  -0.786  1.00  0.00    -0.205 F 
ENDBRANCH   8  13
ENDBRANCH   1   7
BRANCH   4  21
ATOM     21  C   UNL     1      -4.353   0.094   0.520  1.00  0.00    -0.005 A 
ATOM     22  C   UNL     1      -5.129  -0.497  -0.509  1.00  0.00     0.051 A 
ATOM     23  C   UNL     1      -4.994   0.418   1.734  1.00  0.00     0.009 A 
ATOM     24  C   UNL     1      -4.923  -0.991  -1.834  1.00  0.00     0.153 A 
ATOM     25  C   UNL     1      -6.487  -0.716  -0.279  1.00  0.00     0.068 A 
ATOM     26  C   UNL     1      -6.354   0.181   1.926  1.00  0.00     0.003 A 
ATOM     27  N   UNL     1      -6.038  -1.465  -2.381  1.00  0.00    -0.157 NA
ATOM     28  N   UNL     1      -6.964  -1.280  -1.431  1.00  0.00    -0.276 N 
ATOM     29  C   UNL     1      -7.132  -0.391   0.919  1.00  0.00     0.028 A 
ATOM     30  H   UNL     1      -7.914  -1.568  -1.628  1.00  0.00     0.190 HD
BRANCH  24  31
ATOM     31  N   UNL     1      -3.749  -1.014  -2.485  1.00  0.00    -0.382 N 
ATOM     32  H   UNL     1      -3.714  -1.629  -3.291  1.00  0.00     0.158 HD
ATOM     33  H   UNL     1      -2.889  -1.021  -1.947  1.00  0.00     0.158 HD
ENDBRANCH  24  31
ENDBRANCH   4  21
TORSDOF 4
