REMARK SMILES O=C1CN(/N=C/c2ccc([N+](=O)[O-])o2)C(=O)N1
REMARK SMILES IDX 7 1 8 2 9 3 10 4 14 5 6 6 5 7 4 8 1 9 2 10 3 11 17 12 15 13
REMARK SMILES IDX 16 15 11 16 12 17 13 18
REMARK H PARENT 17 14
REMARK Flexibility Score: inf
ROOT
ATOM      1  C   UNL     1       1.547   0.014  -0.002  1.00  0.00     0.154 A 
ATOM      2  C   UNL     1       2.190   0.365   1.174  1.00  0.00     0.060 A 
ATOM      3  C   UNL     1       3.581   0.369   0.901  1.00  0.00     0.134 A 
ATOM      4  C   UNL     1       3.692   0.017  -0.423  1.00  0.00     0.433 A 
ATOM      5  O   UNL     1       2.474  -0.202  -0.988  1.00  0.00    -0.400 OA
ENDROOT
BRANCH   1   6
ATOM      6  C   UNL     1       0.157  -0.151  -0.332  1.00  0.00     0.181 C 
ATOM      7  N   UNL     1      -0.743   0.008   0.586  1.00  0.00    -0.173 NA
BRANCH   7   8
ATOM      8  N   UNL     1      -2.065  -0.118   0.256  1.00  0.00    -0.205 N 
ATOM      9  O   UNL     1      -5.466  -0.083   0.923  1.00  0.00    -0.272 OA
ATOM     10  C   UNL     1      -4.328  -0.094   0.480  1.00  0.00     0.249 C 
ATOM     11  C   UNL     1      -3.059  -0.129   1.304  1.00  0.00     0.250 C 
ATOM     12  N   UNL     1      -4.007  -0.059  -0.839  1.00  0.00    -0.275 N 
ATOM     13  C   UNL     1      -2.659  -0.002  -1.011  1.00  0.00     0.344 C 
ATOM     14  H   UNL     1      -4.672   0.029  -1.588  1.00  0.00     0.174 HD
ATOM     15  O   UNL     1      -2.119   0.151  -2.095  1.00  0.00    -0.246 OA
ENDBRANCH   7   8
ENDBRANCH   1   6
BRANCH   4  16
ATOM     16  N   UNL     1       4.830  -0.150  -1.270  1.00  0.00     0.102 N 
ATOM     17  O   UNL     1       4.633  -0.489  -2.444  1.00  0.00    -0.256 OA
ATOM     18  O   UNL     1       5.934   0.059  -0.750  1.00  0.00    -0.256 OA
ENDBRANCH   4  16
TORSDOF 3
