REMARK SMILES CCC1(CC)C(=O)NC(=O)N(C)C1=O
REMARK SMILES IDX 3 1 6 2 7 3 8 4 9 5 10 6 11 7 12 8 13 9 14 10 2 12 1 13 4 14
REMARK SMILES IDX 5 15
REMARK H PARENT 8 11
REMARK Flexibility Score: inf
ROOT
ATOM      1  C   UNL     1      -0.476  -0.014   0.162  1.00  0.00     0.128 C 
ATOM      2  C   UNL     1      -0.543  -0.378  -1.308  1.00  0.00     0.243 C 
ATOM      3  O   UNL     1      -1.544  -0.253  -2.008  1.00  0.00    -0.273 OA
ATOM      4  N   UNL     1       0.590  -0.935  -1.822  1.00  0.00    -0.277 N 
ATOM      5  C   UNL     1       1.847  -0.593  -1.428  1.00  0.00     0.330 C 
ATOM      6  O   UNL     1       2.787  -0.790  -2.197  1.00  0.00    -0.248 OA
ATOM      7  N   UNL     1       1.974   0.031  -0.203  1.00  0.00    -0.266 N 
ATOM      8  C   UNL     1       3.306   0.450   0.197  1.00  0.00     0.158 C 
ATOM      9  C   UNL     1       0.901   0.533   0.525  1.00  0.00     0.246 C 
ATOM     10  O   UNL     1       1.056   1.319   1.462  1.00  0.00    -0.273 OA
ATOM     11  H   UNL     1       0.531  -1.203  -2.796  1.00  0.00     0.174 HD
ENDROOT
BRANCH   1  12
ATOM     12  C   UNL     1      -1.586   1.003   0.533  1.00  0.00     0.023 C 
ATOM     13  C   UNL     1      -1.459   2.365  -0.149  1.00  0.00     0.005 C 
ENDBRANCH   1  12
BRANCH   1  14
ATOM     14  C   UNL     1      -0.626  -1.325   0.994  1.00  0.00     0.023 C 
ATOM     15  C   UNL     1      -1.974  -2.029   0.878  1.00  0.00     0.005 C 
ENDBRANCH   1  14
TORSDOF 2
