REMARK SMILES CC(N/C(=N\C#N)Nc1ccncc1)C(C)(C)C
REMARK SMILES IDX 1 1 2 2 3 3 4 4 5 6 8 7 6 9 7 10 9 11 10 12 14 13 11 14
REMARK SMILES IDX 13 15 12 16 15 17 16 18 17 19 18 20
REMARK H PARENT 3 5 8 8
REMARK Flexibility Score: inf
ROOT
ATOM      1  C   UNL     1      -1.187  -0.739  -1.651  1.00  0.00     0.031 C 
ATOM      2  C   UNL     1      -1.385   0.334  -0.572  1.00  0.00     0.084 C 
ENDROOT
BRANCH   2   3
ATOM      3  N   UNL     1      -0.360   0.134   0.468  1.00  0.00    -0.352 N 
ATOM      4  C   UNL     1       0.962   0.521   0.340  1.00  0.00     0.211 C 
ATOM      5  H   UNL     1      -0.433  -0.816   0.815  1.00  0.00     0.163 HD
ATOM      6  N   UNL     1       1.472   1.626  -0.097  1.00  0.00    -0.138 NA
ATOM      7  N   UNL     1       1.742  -0.508   0.834  1.00  0.00    -0.325 N 
ATOM      8  H   UNL     1       1.405  -0.877   1.713  1.00  0.00     0.170 HD
BRANCH   6   9
ATOM      9  C   UNL     1       0.701   2.662  -0.420  1.00  0.00     0.209 C 
ATOM     10  N   UNL     1       0.051   3.578  -0.713  1.00  0.00    -0.170 NA
ENDBRANCH   6   9
BRANCH   7  11
ATOM     11  C   UNL     1       3.141  -0.663   0.695  1.00  0.00     0.044 A 
ATOM     12  C   UNL     1       3.866  -0.136  -0.374  1.00  0.00     0.046 A 
ATOM     13  C   UNL     1       3.830  -1.463   1.613  1.00  0.00     0.046 A 
ATOM     14  C   UNL     1       5.228  -0.384  -0.453  1.00  0.00     0.113 A 
ATOM     15  C   UNL     1       5.194  -1.657   1.450  1.00  0.00     0.113 A 
ATOM     16  N   UNL     1       5.910  -1.132   0.438  1.00  0.00    -0.265 NA
ENDBRANCH   7  11
ENDBRANCH   2   3
BRANCH   2  17
ATOM     17  C   UNL     1      -2.813   0.349   0.077  1.00  0.00    -0.018 C 
ATOM     18  C   UNL     1      -3.173  -0.982   0.764  1.00  0.00     0.013 C 
ATOM     19  C   UNL     1      -3.882   0.640  -0.998  1.00  0.00     0.013 C 
ATOM     20  C   UNL     1      -2.892   1.479   1.128  1.00  0.00     0.013 C 
ENDBRANCH   2  17
TORSDOF 4
