REMARK SMILES Cc1n[nH]c(C)c1-c1cnn(C2(CC#N)CN(c3cc(F)c(C(=O)N[C@@H](C)C(F)(F)F)cc3F)C2)c1
REMARK SMILES IDX 22 1 32 2 33 3 34 4 18 5 19 6 20 7 21 8 23 9 25 10 24 12
REMARK SMILES IDX 26 13 27 14 28 15 29 16 30 17 31 18 17 19 16 20 35 21 12 22
REMARK SMILES IDX 13 23 14 24 15 25 11 26 36 27 10 28 8 29 9 30 7 31 5 32 2 33
REMARK SMILES IDX 6 34 4 35 3 36 1 37
REMARK H PARENT 25 11 4 38
REMARK Flexibility Score: inf
ROOT
ATOM      1  C   UNL     1       4.235   0.156  -0.587  1.00  0.00     0.078 A 
ATOM      2  C   UNL     1       3.424  -0.507  -1.515  1.00  0.00     0.058 A 
ATOM      3  C   UNL     1       2.162  -0.965  -1.137  1.00  0.00     0.147 A 
ATOM      4  F   UNL     1       1.421  -1.596  -2.060  1.00  0.00    -0.205 F 
ATOM      5  C   UNL     1       1.664  -0.780   0.164  1.00  0.00     0.076 A 
ATOM      6  C   UNL     1       2.491  -0.128   1.087  1.00  0.00     0.069 A 
ATOM      7  C   UNL     1       3.754   0.335   0.711  1.00  0.00     0.138 A 
ATOM      8  F   UNL     1       4.496   0.956   1.642  1.00  0.00    -0.206 F 
ENDROOT
BRANCH   1   9
ATOM      9  C   UNL     1       5.574   0.629  -1.031  1.00  0.00     0.254 C 
ATOM     10  N   UNL     1       6.308   1.398  -0.154  1.00  0.00    -0.340 N 
ATOM     11  H   UNL     1       5.994   1.466   0.810  1.00  0.00     0.164 HD
ATOM     12  O   UNL     1       5.986   0.338  -2.149  1.00  0.00    -0.269 OA
BRANCH  10  13
ATOM     13  C   UNL     1       7.719   1.720  -0.435  1.00  0.00     0.184 C 
ATOM     14  C   UNL     1       8.080   3.030   0.261  1.00  0.00     0.041 C 
BRANCH  13  15
ATOM     15  C   UNL     1       8.699   0.602  -0.023  1.00  0.00     0.408 C 
ATOM     16  F   UNL     1       8.425  -0.575  -0.623  1.00  0.00    -0.169 F 
ATOM     17  F   UNL     1       9.974   0.932  -0.333  1.00  0.00    -0.169 F 
ATOM     18  F   UNL     1       8.650   0.394   1.317  1.00  0.00    -0.169 F 
ENDBRANCH  13  15
ENDBRANCH  10  13
ENDBRANCH   1   9
BRANCH   5  19
ATOM     19  N   UNL     1       0.393  -1.257   0.554  1.00  0.00    -0.364 N 
ATOM     20  C   UNL     1      -0.741  -1.485  -0.303  1.00  0.00     0.150 C 
ATOM     21  C   UNL     1      -0.437  -0.749   1.615  1.00  0.00     0.150 C 
ATOM     22  C   UNL     1      -1.585  -1.575   0.988  1.00  0.00     0.110 C 
BRANCH  22  23
ATOM     23  C   UNL     1      -1.796  -2.948   1.619  1.00  0.00     0.154 C 
BRANCH  23  24
ATOM     24  C   UNL     1      -2.659  -3.795   0.784  1.00  0.00     0.065 C 
ATOM     25  N   UNL     1      -3.341  -4.430   0.095  1.00  0.00    -0.198 NA
ENDBRANCH  23  24
ENDBRANCH  22  23
BRANCH  22  26
ATOM     26  N   UNL     1      -2.838  -0.791   0.942  1.00  0.00    -0.261 N 
ATOM     27  C   UNL     1      -3.705  -0.754  -0.115  1.00  0.00     0.118 A 
ATOM     28  N   UNL     1      -3.281  -0.118   2.022  1.00  0.00    -0.180 NA
ATOM     29  C   UNL     1      -4.766   0.019   0.295  1.00  0.00     0.023 A 
ATOM     30  C   UNL     1      -4.452   0.386   1.618  1.00  0.00     0.144 A 
BRANCH  29  31
ATOM     31  C   UNL     1      -5.968   0.383  -0.435  1.00  0.00     0.028 A 
ATOM     32  C   UNL     1      -6.658   1.577  -0.408  1.00  0.00     0.040 A 
ATOM     33  C   UNL     1      -6.688  -0.445  -1.338  1.00  0.00     0.067 A 
ATOM     34  C   UNL     1      -6.439   2.854   0.310  1.00  0.00     0.067 C 
ATOM     35  N   UNL     1      -7.710   1.405  -1.266  1.00  0.00    -0.282 N 
ATOM     36  N   UNL     1      -7.749   0.197  -1.845  1.00  0.00    -0.180 NA
ATOM     37  C   UNL     1      -6.424  -1.850  -1.739  1.00  0.00     0.069 C 
ATOM     38  H   UNL     1      -8.436   2.071  -1.507  1.00  0.00     0.190 HD
ENDBRANCH  29  31
ENDBRANCH  22  26
ENDBRANCH   5  19
TORSDOF 8
