REMARK SMILES N#C[C@@H]1CCCN1C(=O)CNC12CC3CC(CC(O)(C3)C1)C2
REMARK SMILES IDX 10 1 8 2 9 3 7 4 3 5 4 6 5 7 6 8 2 9 1 10 11 11 12 13 22 14
REMARK SMILES IDX 21 15 13 16 16 17 18 18 14 19 15 20 17 21 20 22 19 23
REMARK H PARENT 11 12 19 24
REMARK Flexibility Score: inf
ROOT
ATOM      1  C   UNL     1       1.126  -0.029   0.072  1.00  0.00     0.182 C 
ENDROOT
BRANCH   1   2
ATOM      2  C   UNL     1       2.456  -0.216   0.824  1.00  0.00     0.237 C 
ATOM      3  O   UNL     1       2.485  -0.565   2.007  1.00  0.00    -0.273 OA
BRANCH   2   4
ATOM      4  N   UNL     1       3.617  -0.011   0.110  1.00  0.00    -0.326 N 
ATOM      5  C   UNL     1       4.927  -0.162   0.751  1.00  0.00     0.189 C 
ATOM      6  C   UNL     1       5.922  -0.032  -0.412  1.00  0.00     0.043 C 
ATOM      7  C   UNL     1       5.118  -0.482  -1.625  1.00  0.00     0.025 C 
ATOM      8  C   UNL     1       3.732   0.070  -1.335  1.00  0.00     0.121 C 
BRANCH   5   9
ATOM      9  C   UNL     1       5.210   0.857   1.784  1.00  0.00     0.087 C 
ATOM     10  N   UNL     1       5.484   1.671   2.565  1.00  0.00    -0.196 NA
ENDBRANCH   5   9
ENDBRANCH   2   4
ENDBRANCH   1   2
BRANCH   1  11
ATOM     11  N   UNL     1       0.088   0.396   1.020  1.00  0.00    -0.303 NA
ATOM     12  H   UNL     1       0.236  -0.113   1.899  1.00  0.00     0.123 HD
BRANCH  11  13
ATOM     13  C   UNL     1      -1.301   0.254   0.573  1.00  0.00     0.022 C 
ATOM     14  C   UNL     1      -2.186   0.944   1.649  1.00  0.00     0.026 C 
ATOM     15  C   UNL     1      -1.742  -1.227   0.474  1.00  0.00     0.057 C 
ATOM     16  C   UNL     1      -1.566   0.953  -0.785  1.00  0.00     0.026 C 
ATOM     17  C   UNL     1      -3.676   0.852   1.278  1.00  0.00    -0.006 C 
ATOM     18  C   UNL     1      -3.230  -1.320   0.092  1.00  0.00     0.067 C 
ATOM     19  C   UNL     1      -3.055   0.856  -1.164  1.00  0.00    -0.006 C 
ATOM     20  C   UNL     1      -3.902   1.540  -0.078  1.00  0.00     0.007 C 
ATOM     21  C   UNL     1      -4.077  -0.626   1.171  1.00  0.00     0.039 C 
ATOM     22  C   UNL     1      -3.455  -0.624  -1.261  1.00  0.00     0.039 C 
BRANCH  18  23
ATOM     23  O   UNL     1      -3.596  -2.690  -0.007  1.00  0.00    -0.390 OA
ATOM     24  H   UNL     1      -4.548  -2.733  -0.206  1.00  0.00     0.211 HD
ENDBRANCH  18  23
ENDBRANCH  11  13
ENDBRANCH   1  11
TORSDOF 6
