REMARK SMILES O=C(NCc1c(F)cc(F)cc1F)c1cn2c(c(O)c1=O)C(=O)N1[C@H]3CC[C@H](C3)O[C@@H]1C2
REMARK SMILES IDX 1 1 2 2 3 3 14 5 15 6 20 7 16 8 18 9 21 10 17 11 32 12 22 13
REMARK SMILES IDX 31 14 23 15 24 16 30 17 25 18 28 19 26 20 29 21 27 22 19 23
REMARK SMILES IDX 4 25 5 26 6 27 12 28 7 29 8 30 11 31 13 32 9 33 10 34
REMARK H PARENT 3 4 19 24
REMARK Flexibility Score: inf
ROOT
ATOM      1  O   UNL     1       2.884   0.303   2.261  1.00  0.00    -0.269 OA
ATOM      2  C   UNL     1       2.693   0.847   1.176  1.00  0.00     0.257 C 
ATOM      3  N   UNL     1       3.696   1.416   0.439  1.00  0.00    -0.348 N 
ATOM      4  H   UNL     1       3.471   1.795  -0.483  1.00  0.00     0.164 HD
ENDROOT
BRANCH   2   5
ATOM      5  C   UNL     1       1.330   0.923   0.577  1.00  0.00     0.107 C 
ATOM      6  C   UNL     1       0.301   0.402   1.263  1.00  0.00     0.104 C 
ATOM      7  C   UNL     1       1.015   1.546  -0.736  1.00  0.00     0.236 C 
ATOM      8  N   UNL     1      -1.020   0.394   0.839  1.00  0.00    -0.335 N 
ATOM      9  C   UNL     1      -0.423   1.597  -1.178  1.00  0.00     0.194 C 
ATOM     10  O   UNL     1       1.913   2.012  -1.439  1.00  0.00    -0.285 OA
ATOM     11  C   UNL     1      -1.349   1.024  -0.374  1.00  0.00     0.153 C 
ATOM     12  C   UNL     1      -2.086  -0.115   1.719  1.00  0.00     0.177 C 
ATOM     13  C   UNL     1      -2.802   1.083  -0.825  1.00  0.00     0.276 C 
ATOM     14  C   UNL     1      -3.269  -0.618   0.881  1.00  0.00     0.238 C 
ATOM     15  O   UNL     1      -3.114   1.714  -1.836  1.00  0.00    -0.267 OA
ATOM     16  N   UNL     1      -3.732   0.410  -0.044  1.00  0.00    -0.307 N 
ATOM     17  O   UNL     1      -4.312  -1.050   1.765  1.00  0.00    -0.353 OA
ATOM     18  C   UNL     1      -5.120   0.330  -0.498  1.00  0.00     0.090 C 
ATOM     19  C   UNL     1      -5.620  -1.144   1.193  1.00  0.00     0.123 C 
ATOM     20  C   UNL     1      -5.376  -1.003  -1.217  1.00  0.00     0.028 C 
ATOM     21  C   UNL     1      -6.023   0.240   0.720  1.00  0.00     0.057 C 
ATOM     22  C   UNL     1      -5.647  -2.001  -0.079  1.00  0.00     0.034 C 
BRANCH   9  23
ATOM     23  O   UNL     1      -0.688   2.234  -2.381  1.00  0.00    -0.503 OA
ATOM     24  H   UNL     1      -1.660   2.240  -2.525  1.00  0.00     0.293 HD
ENDBRANCH   9  23
ENDBRANCH   2   5
BRANCH   3  25
ATOM     25  C   UNL     1       5.085   1.376   0.835  1.00  0.00     0.158 C 
BRANCH  25  26
ATOM     26  C   UNL     1       5.812   0.228   0.200  1.00  0.00     0.043 A 
ATOM     27  C   UNL     1       6.008   0.181  -1.183  1.00  0.00     0.134 A 
ATOM     28  C   UNL     1       6.317  -0.824   0.966  1.00  0.00     0.134 A 
ATOM     29  F   UNL     1       5.555   1.179  -1.955  1.00  0.00    -0.206 F 
ATOM     30  C   UNL     1       6.673  -0.880  -1.790  1.00  0.00     0.079 A 
ATOM     31  C   UNL     1       6.986  -1.894   0.380  1.00  0.00     0.079 A 
ATOM     32  F   UNL     1       6.178  -0.811   2.299  1.00  0.00    -0.206 F 
ATOM     33  C   UNL     1       7.154  -1.912  -0.997  1.00  0.00     0.129 A 
ATOM     34  F   UNL     1       7.797  -2.938  -1.569  1.00  0.00    -0.207 F 
ENDBRANCH  25  26
ENDBRANCH   3  25
TORSDOF 4
