REMARK SMILES CN1C(=O)CN=C(c2ccccc2)c2cc(Cl)ccc21
REMARK SMILES IDX 14 1 15 2 16 3 17 4 18 5 19 6 20 7 2 8 1 9 3 10 4 11 7 13
REMARK SMILES IDX 6 14 8 15 9 16 13 17 10 18 12 19 11 20 5 21
REMARK H PARENT
REMARK Flexibility Score: 90.00
ROOT
ATOM      1  C   UNL     1      -0.419  -0.609   0.437  1.00  0.00     0.026 A 
ATOM      2  C   UNL     1       0.099  -1.909   0.587  1.00  0.00     0.033 A 
ATOM      3  C   UNL     1      -0.692  -3.014   0.297  1.00  0.00     0.041 A 
ATOM      4  Cl  UNL     1      -0.049  -4.598   0.466  1.00  0.00    -0.084 Cl
ATOM      5  C   UNL     1      -1.998  -2.840  -0.141  1.00  0.00     0.023 A 
ATOM      6  C   UNL     1      -2.524  -1.550  -0.266  1.00  0.00     0.028 A 
ATOM      7  C   UNL     1      -1.759  -0.409   0.046  1.00  0.00     0.053 A 
ENDROOT
BRANCH   7   8
ATOM      8  N   UNL     1      -2.367   0.883  -0.044  1.00  0.00    -0.313 N 
ATOM      9  C   UNL     1      -3.467   1.087  -0.977  1.00  0.00     0.153 C 
BRANCH   8  10
ATOM     10  C   UNL     1      -2.086   1.938   0.832  1.00  0.00     0.248 CG0
ATOM     11  O   UNL     1      -2.676   3.021   0.770  1.00  0.00    -0.272 OA
ATOM     12  G   UNL     1      -1.073   1.675   1.938  1.00  0.00     0.000 G0
ENDBRANCH   8  10
ENDBRANCH   7   8
BRANCH   1  13
ATOM     13  C   UNL     1       0.529   0.525   0.646  1.00  0.00     0.075 C 
ATOM     14  N   UNL     1       0.260   1.569   1.356  1.00  0.00    -0.274 NA
BRANCH  13  15
ATOM     15  C   UNL     1       1.882   0.461   0.004  1.00  0.00     0.000 A 
ATOM     16  C   UNL     1       2.059  -0.105  -1.264  1.00  0.00     0.010 A 
ATOM     17  C   UNL     1       2.980   1.009   0.679  1.00  0.00     0.010 A 
ATOM     18  C   UNL     1       3.333  -0.150  -1.836  1.00  0.00     0.001 A 
ATOM     19  C   UNL     1       4.250   0.962   0.104  1.00  0.00     0.001 A 
ATOM     20  C   UNL     1       4.426   0.380  -1.151  1.00  0.00     0.000 A 
ENDBRANCH  13  15
BRANCH  14  21
ATOM     21  C   UNL     1      -1.073   1.675   1.938  1.00  0.00     0.243 CG0
ATOM     22  G   UNL     1      -2.086   1.938   0.832  1.00  0.00     0.000 G0
ENDBRANCH  14  21
ENDBRANCH   1  13
TORSDOF 1
