REMARK SMILES C=CCN1CC[C@]23CCCC[C@H]2[C@H]1Cc1ccc(O)cc13
REMARK SMILES IDX 4 1 5 2 6 3 7 4 8 5 9 6 10 7 11 8 12 9 13 10 14 11 15 12
REMARK SMILES IDX 16 13 17 14 18 15 20 16 21 17 3 18 2 19 1 20 19 21
REMARK H PARENT 19 22
REMARK Flexibility Score: inf
ROOT
ATOM      1  N   UNL     1       1.832   0.056   1.012  1.00  0.00    -0.296 NA
ATOM      2  C   UNL     1       0.752   0.492   1.912  1.00  0.00     0.086 C 
ATOM      3  C   UNL     1      -0.481  -0.429   1.879  1.00  0.00     0.028 C 
ATOM      4  C   UNL     1      -0.953  -0.712   0.432  1.00  0.00     0.001 C 
ATOM      5  C   UNL     1      -2.128  -1.740   0.406  1.00  0.00     0.012 C 
ATOM      6  C   UNL     1      -1.709  -3.149  -0.013  1.00  0.00     0.001 C 
ATOM      7  C   UNL     1      -1.045  -3.152  -1.393  1.00  0.00     0.000 C 
ATOM      8  C   UNL     1      -0.109  -1.959  -1.624  1.00  0.00     0.006 C 
ATOM      9  C   UNL     1       0.285  -1.310  -0.292  1.00  0.00     0.017 C 
ATOM     10  C   UNL     1       1.383  -0.240  -0.377  1.00  0.00     0.065 C 
ATOM     11  C   UNL     1       0.902   0.947  -1.238  1.00  0.00     0.055 C 
ATOM     12  C   UNL     1      -0.504   1.412  -0.944  1.00  0.00    -0.042 A 
ATOM     13  C   UNL     1      -0.921   2.645  -1.474  1.00  0.00     0.008 A 
ATOM     14  C   UNL     1      -2.197   3.137  -1.213  1.00  0.00     0.046 A 
ATOM     15  C   UNL     1      -3.060   2.401  -0.417  1.00  0.00     0.115 A 
ATOM     16  C   UNL     1      -2.672   1.172   0.110  1.00  0.00     0.050 A 
ATOM     17  C   UNL     1      -1.397   0.639  -0.171  1.00  0.00    -0.034 A 
ENDROOT
BRANCH   1  18
ATOM     18  C   UNL     1       2.969   0.981   1.100  1.00  0.00     0.111 C 
BRANCH  18  19
ATOM     19  C   UNL     1       4.204   0.436   0.443  1.00  0.00    -0.019 C 
ATOM     20  C   UNL     1       4.900   1.067  -0.512  1.00  0.00     0.005 C 
ENDBRANCH  18  19
ENDBRANCH   1  18
BRANCH  15  21
ATOM     21  O   UNL     1      -4.294   2.924  -0.166  1.00  0.00    -0.508 OA
ATOM     22  H   UNL     1      -4.790   2.296   0.383  1.00  0.00     0.293 HD
ENDBRANCH  15  21
TORSDOF 3
