REMARK SMILES Nc1ccc(C#Cc2cnn3c(C(F)(F)F)cc(-c4ccc(C(F)(F)F)cc4)nc23)cn1
REMARK SMILES IDX 8 1 30 2 29 3 18 4 17 5 12 6 11 7 10 8 9 9 7 10 6 11 5 12
REMARK SMILES IDX 2 13 3 14 32 15 4 16 31 17 1 18 19 21 20 22 28 23 21 24
REMARK SMILES IDX 27 25 22 26 23 27 24 28 25 29 26 30 13 31 14 32 15 33 16 34
REMARK H PARENT 1 19 1 20
REMARK Flexibility Score: inf
ROOT
ATOM      1  C   UNL     1       1.398   2.298   0.252  1.00  0.00     0.090 A 
ATOM      2  C   UNL     1       0.038   2.088   0.270  1.00  0.00     0.172 A 
ATOM      3  N   UNL     1      -0.714   0.953   0.142  1.00  0.00    -0.227 NA
ATOM      4  C   UNL     1      -2.009   1.087   0.193  1.00  0.00     0.075 C 
ATOM      5  C   UNL     1      -2.708   2.392   0.416  1.00  0.00     0.062 C 
ATOM      6  C   UNL     1      -1.925   3.482   0.537  1.00  0.00     0.150 C 
ATOM      7  N   UNL     1      -0.544   3.350   0.461  1.00  0.00    -0.209 N 
ATOM      8  N   UNL     1       0.403   4.320   0.556  1.00  0.00    -0.173 NA
ATOM      9  C   UNL     1       1.564   3.676   0.429  1.00  0.00     0.155 A 
ENDROOT
BRANCH   1  10
ATOM     10  C   UNL     1       2.399   1.301   0.086  1.00  0.00    -0.056 C 
ATOM     11  C   UNL     1       3.228   0.443  -0.053  1.00  0.00    -0.060 C 
BRANCH  11  12
ATOM     12  C   UNL     1       4.193  -0.596  -0.217  1.00  0.00     0.043 A 
ATOM     13  C   UNL     1       5.980  -2.666  -0.539  1.00  0.00     0.123 A 
ATOM     14  C   UNL     1       6.461  -1.384  -0.286  1.00  0.00     0.048 A 
ATOM     15  N   UNL     1       4.667  -2.933  -0.634  1.00  0.00    -0.238 NA
ATOM     16  C   UNL     1       5.555  -0.335  -0.123  1.00  0.00     0.022 A 
ATOM     17  C   UNL     1       3.803  -1.902  -0.474  1.00  0.00     0.130 A 
BRANCH  13  18
ATOM     18  N   UNL     1       6.872  -3.728  -0.703  1.00  0.00    -0.384 N 
ATOM     19  H   UNL     1       7.492  -3.537  -1.484  1.00  0.00     0.158 HD
ATOM     20  H   UNL     1       7.436  -3.834   0.134  1.00  0.00     0.158 HD
ENDBRANCH  13  18
ENDBRANCH  11  12
ENDBRANCH   1  10
BRANCH   4  21
ATOM     21  C   UNL     1      -2.866  -0.126   0.048  1.00  0.00     0.000 A 
ATOM     22  C   UNL     1      -4.120  -0.081  -0.572  1.00  0.00     0.011 A 
ATOM     23  C   UNL     1      -2.375  -1.351   0.518  1.00  0.00     0.011 A 
ATOM     24  C   UNL     1      -4.885  -1.247  -0.694  1.00  0.00     0.014 A 
ATOM     25  C   UNL     1      -3.141  -2.514   0.396  1.00  0.00     0.014 A 
ATOM     26  C   UNL     1      -4.409  -2.473  -0.202  1.00  0.00     0.056 A 
BRANCH  26  27
ATOM     27  C   UNL     1      -5.229  -3.732  -0.359  1.00  0.00     0.416 C 
ATOM     28  F   UNL     1      -5.028  -4.333  -1.563  1.00  0.00    -0.166 F 
ATOM     29  F   UNL     1      -4.952  -4.674   0.585  1.00  0.00    -0.166 F 
ATOM     30  F   UNL     1      -6.569  -3.503  -0.273  1.00  0.00    -0.166 F 
ENDBRANCH  26  27
ENDBRANCH   4  21
BRANCH   6  31
ATOM     31  C   UNL     1      -2.448   4.849   0.766  1.00  0.00     0.433 C 
ATOM     32  F   UNL     1      -2.028   5.386   1.938  1.00  0.00    -0.165 F 
ATOM     33  F   UNL     1      -3.811   4.850   0.826  1.00  0.00    -0.165 F 
ATOM     34  F   UNL     1      -2.124   5.712  -0.229  1.00  0.00    -0.165 F 
ENDBRANCH   6  31
TORSDOF 6
