REMARK SMILES Cn1ncnc1[C@H]1c2n[nH]c(=O)c3cc(F)cc(c23)N[C@@H]1c1ccc(F)cc1
REMARK SMILES IDX 7 1 8 2 9 3 10 4 11 5 12 6 13 7 14 8 15 9 16 10 17 11 18 12
REMARK SMILES IDX 19 13 20 14 21 15 6 18 1 19 2 20 3 21 4 22 5 23 22 24 23 25
REMARK SMILES IDX 28 26 24 27 27 28 25 29 26 30
REMARK H PARENT 10 16 20 17
REMARK Flexibility Score: inf
ROOT
ATOM      1  C   UNL     1      -0.365  -0.503   0.638  1.00  0.00     0.136 C 
ATOM      2  C   UNL     1       0.755  -1.485   0.305  1.00  0.00     0.084 C 
ATOM      3  N   UNL     1       0.535  -2.768   0.331  1.00  0.00    -0.176 NA
ATOM      4  N   UNL     1       1.571  -3.611   0.063  1.00  0.00    -0.243 N 
ATOM      5  C   UNL     1       2.872  -3.246  -0.186  1.00  0.00     0.272 C 
ATOM      6  O   UNL     1       3.763  -4.061  -0.392  1.00  0.00    -0.267 OA
ATOM      7  C   UNL     1       3.142  -1.803  -0.208  1.00  0.00     0.055 A 
ATOM      8  C   UNL     1       4.427  -1.317  -0.441  1.00  0.00     0.054 A 
ATOM      9  C   UNL     1       4.631   0.056  -0.433  1.00  0.00     0.126 A 
ATOM     10  F   UNL     1       5.863   0.540  -0.634  1.00  0.00    -0.207 F 
ATOM     11  C   UNL     1       3.576   0.942  -0.219  1.00  0.00     0.065 A 
ATOM     12  C   UNL     1       2.275   0.464  -0.031  1.00  0.00     0.048 A 
ATOM     13  C   UNL     1       2.086  -0.922   0.013  1.00  0.00     0.035 A 
ATOM     14  N   UNL     1       1.238   1.360   0.241  1.00  0.00    -0.376 N 
ATOM     15  C   UNL     1      -0.120   0.864  -0.037  1.00  0.00     0.126 C 
ATOM     16  H   UNL     1       1.370  -4.607   0.117  1.00  0.00     0.194 HD
ATOM     17  H   UNL     1       1.397   2.298  -0.125  1.00  0.00     0.161 HD
ENDROOT
BRANCH   1  18
ATOM     18  C   UNL     1      -1.725  -1.054   0.298  1.00  0.00     0.138 A 
ATOM     19  C   UNL     1      -1.363  -1.954  -2.069  1.00  0.00     0.176 C 
ATOM     20  N   UNL     1      -2.116  -1.642  -0.882  1.00  0.00    -0.252 N 
ATOM     21  N   UNL     1      -3.430  -1.937  -0.861  1.00  0.00    -0.160 NA
ATOM     22  C   UNL     1      -3.778  -1.550   0.365  1.00  0.00     0.246 A 
ATOM     23  N   UNL     1      -2.774  -0.999   1.100  1.00  0.00    -0.219 NA
ENDBRANCH   1  18
BRANCH  15  24
ATOM     24  C   UNL     1      -1.100   1.945   0.403  1.00  0.00    -0.024 A 
ATOM     25  C   UNL     1      -2.045   2.455  -0.505  1.00  0.00     0.009 A 
ATOM     26  C   UNL     1      -1.087   2.447   1.718  1.00  0.00     0.009 A 
ATOM     27  C   UNL     1      -2.951   3.440  -0.107  1.00  0.00     0.039 A 
ATOM     28  C   UNL     1      -1.993   3.432   2.112  1.00  0.00     0.039 A 
ATOM     29  C   UNL     1      -2.916   3.919   1.196  1.00  0.00     0.123 A 
ATOM     30  F   UNL     1      -3.785   4.866   1.574  1.00  0.00    -0.207 F 
ENDBRANCH  15  24
TORSDOF 2
