REMARK SMILES Nc1cc(N2CCCCC2)nc(N)[n+]1[O-]
REMARK SMILES IDX 2 1 3 2 4 3 11 4 12 5 14 6 15 7 1 8 5 11 6 12 10 13 7 14
REMARK SMILES IDX 9 15 8 16 13 17
REMARK H PARENT 1 9 1 10 13 18 13 19
REMARK Flexibility Score: inf
ROOT
ATOM      1  C   UNL     1      -2.553   1.089  -0.521  1.00  0.00     0.197 A 
ATOM      2  C   UNL     1      -1.348   0.703  -1.097  1.00  0.00     0.132 A 
ATOM      3  C   UNL     1      -0.525  -0.199  -0.435  1.00  0.00     0.195 A 
ATOM      4  N   UNL     1      -0.903  -0.724   0.752  1.00  0.00    -0.089 NA
ATOM      5  C   UNL     1      -2.056  -0.332   1.348  1.00  0.00     0.346 A 
ATOM      6  N   UNL     1      -2.918   0.572   0.723  1.00  0.00    -0.245 N 
ATOM      7  O   UNL     1      -4.061   0.886   1.238  1.00  0.00    -0.754 OA
ENDROOT
BRANCH   1   8
ATOM      8  N   UNL     1      -3.408   2.018  -1.167  1.00  0.00    -0.335 N 
ATOM      9  H   UNL     1      -4.233   2.110  -0.558  1.00  0.00     0.229 HD
ATOM     10  H   UNL     1      -3.672   1.716  -2.100  1.00  0.00     0.229 HD
ENDBRANCH   1   8
BRANCH   3  11
ATOM     11  N   UNL     1       0.677  -0.620  -1.015  1.00  0.00    -0.346 N 
ATOM     12  C   UNL     1       1.584   0.422  -1.524  1.00  0.00     0.119 C 
ATOM     13  C   UNL     1       1.377  -1.720  -0.328  1.00  0.00     0.119 C 
ATOM     14  C   UNL     1       2.427   1.005  -0.388  1.00  0.00     0.022 C 
ATOM     15  C   UNL     1       2.247  -1.201   0.820  1.00  0.00     0.022 C 
ATOM     16  C   UNL     1       3.191  -0.095   0.349  1.00  0.00     0.004 C 
ENDBRANCH   3  11
BRANCH   5  17
ATOM     17  N   UNL     1      -2.395  -0.885   2.587  1.00  0.00    -0.307 N 
ATOM     18  H   UNL     1      -2.018  -1.816   2.697  1.00  0.00     0.232 HD
ATOM     19  H   UNL     1      -3.390  -0.745   2.760  1.00  0.00     0.232 HD
ENDBRANCH   5  17
TORSDOF 3
