REMARK SMILES O=C1CN=C(c2ccccc2)c2cc(Cl)ccc2N1CC(F)(F)F
REMARK SMILES IDX 12 1 13 2 14 3 15 4 16 5 17 6 18 7 19 8 2 9 1 10 20 12 21 13
REMARK SMILES IDX 22 14 23 15 24 16 5 17 4 18 6 19 7 20 11 21 8 22 10 23 9 24
REMARK SMILES IDX 3 25
REMARK H PARENT
REMARK Flexibility Score: 90.00
ROOT
ATOM      1  C   UNL     1       0.004   0.170  -0.940  1.00  0.00     0.026 A 
ATOM      2  C   UNL     1       0.539   0.947  -1.986  1.00  0.00     0.033 A 
ATOM      3  C   UNL     1      -0.197   1.989  -2.532  1.00  0.00     0.041 A 
ATOM      4  Cl  UNL     1       0.470   2.944  -3.795  1.00  0.00    -0.084 Cl
ATOM      5  C   UNL     1      -1.466   2.268  -2.048  1.00  0.00     0.023 A 
ATOM      6  C   UNL     1      -2.014   1.480  -1.028  1.00  0.00     0.028 A 
ATOM      7  C   UNL     1      -1.311   0.392  -0.474  1.00  0.00     0.054 A 
ENDROOT
BRANCH   7   8
ATOM      8  N   UNL     1      -1.943  -0.426   0.520  1.00  0.00    -0.301 N 
BRANCH   8   9
ATOM      9  C   UNL     1      -1.680  -1.790   0.694  1.00  0.00     0.248 CG0
ATOM     10  O   UNL     1      -2.194  -2.435   1.611  1.00  0.00    -0.272 OA
ATOM     11  G   UNL     1      -0.778  -2.463  -0.328  1.00  0.00     0.000 G0
ENDBRANCH   8   9
BRANCH   8  12
ATOM     12  C   UNL     1      -2.984   0.136   1.403  1.00  0.00     0.241 C 
BRANCH  12  13
ATOM     13  C   UNL     1      -4.429  -0.201   1.023  1.00  0.00     0.406 C 
ATOM     14  F   UNL     1      -5.282   0.319   1.939  1.00  0.00    -0.169 F 
ATOM     15  F   UNL     1      -4.760   0.349  -0.171  1.00  0.00    -0.169 F 
ATOM     16  F   UNL     1      -4.676  -1.521   0.940  1.00  0.00    -0.169 F 
ENDBRANCH  12  13
ENDBRANCH   8  12
ENDBRANCH   7   8
BRANCH   1  17
ATOM     17  C   UNL     1       0.924  -0.835  -0.325  1.00  0.00     0.075 C 
ATOM     18  N   UNL     1       0.597  -2.056  -0.071  1.00  0.00    -0.274 NA
BRANCH  17  19
ATOM     19  C   UNL     1       2.322  -0.417   0.019  1.00  0.00     0.000 A 
ATOM     20  C   UNL     1       2.599   0.867   0.507  1.00  0.00     0.010 A 
ATOM     21  C   UNL     1       3.362  -1.344  -0.122  1.00  0.00     0.010 A 
ATOM     22  C   UNL     1       3.912   1.226   0.820  1.00  0.00     0.001 A 
ATOM     23  C   UNL     1       4.672  -0.980   0.192  1.00  0.00     0.001 A 
ATOM     24  C   UNL     1       4.946   0.305   0.659  1.00  0.00     0.000 A 
ENDBRANCH  17  19
BRANCH  18  25
ATOM     25  C   UNL     1      -0.778  -2.463  -0.328  1.00  0.00     0.243 CG0
ATOM     26  G   UNL     1      -1.680  -1.790   0.694  1.00  0.00     0.000 G0
ENDBRANCH  18  25
ENDBRANCH   1  17
TORSDOF 3
