REMARK SMILES COCCOc1cnc(NS(=O)(=O)c2ccccc2)nc1
REMARK SMILES IDX 6 1 7 2 8 3 9 4 20 5 21 6 5 7 4 8 3 9 2 10 1 11 10 12 11 14
REMARK SMILES IDX 12 15 13 16 14 17 15 18 19 19 16 20 18 21 17 22
REMARK H PARENT 10 13
REMARK Flexibility Score: inf
ROOT
ATOM      1  C   UNL     1      -1.698  -1.194   0.539  1.00  0.00     0.156 A 
ATOM      2  C   UNL     1      -0.730  -0.241   0.304  1.00  0.00     0.163 A 
ATOM      3  N   UNL     1       0.545  -0.337   0.743  1.00  0.00    -0.217 NA
ATOM      4  C   UNL     1       0.823  -1.412   1.482  1.00  0.00     0.236 A 
ATOM      5  N   UNL     1      -0.002  -2.431   1.735  1.00  0.00    -0.217 NA
ATOM      6  C   UNL     1      -1.261  -2.282   1.268  1.00  0.00     0.163 A 
ENDROOT
BRANCH   1   7
ATOM      7  O   UNL     1      -2.996  -1.191   0.137  1.00  0.00    -0.488 OA
BRANCH   7   8
ATOM      8  C   UNL     1      -3.431  -0.057  -0.615  1.00  0.00     0.258 C 
BRANCH   8   9
ATOM      9  C   UNL     1      -4.916  -0.225  -0.938  1.00  0.00     0.201 C 
BRANCH   9  10
ATOM     10  O   UNL     1      -5.431   0.893  -1.659  1.00  0.00    -0.381 OA
ATOM     11  C   UNL     1      -5.214   0.798  -3.061  1.00  0.00     0.195 C 
ENDBRANCH   9  10
ENDBRANCH   8   9
ENDBRANCH   7   8
ENDBRANCH   1   7
BRANCH   4  12
ATOM     12  N   UNL     1       2.139  -1.668   1.840  1.00  0.00    -0.247 N 
ATOM     13  H   UNL     1       2.252  -2.527   2.365  1.00  0.00     0.183 HD
BRANCH  12  14
ATOM     14  S   UNL     1       3.034  -0.401   2.433  1.00  0.00     0.264 S 
ATOM     15  O   UNL     1       4.210  -0.997   3.037  1.00  0.00    -0.201 OA
ATOM     16  O   UNL     1       2.191   0.484   3.209  1.00  0.00    -0.201 OA
BRANCH  14  17
ATOM     17  C   UNL     1       3.593   0.443   0.974  1.00  0.00     0.087 A 
ATOM     18  C   UNL     1       4.564  -0.159   0.167  1.00  0.00     0.022 A 
ATOM     19  C   UNL     1       3.101   1.715   0.669  1.00  0.00     0.022 A 
ATOM     20  C   UNL     1       5.030   0.511  -0.964  1.00  0.00     0.001 A 
ATOM     21  C   UNL     1       3.571   2.379  -0.464  1.00  0.00     0.001 A 
ATOM     22  C   UNL     1       4.532   1.777  -1.279  1.00  0.00     0.000 A 
ENDBRANCH  14  17
ENDBRANCH  12  14
ENDBRANCH   4  12
TORSDOF 7
