REMARK SMILES Cc1c(Cl)c(C)[n+]([O-])c(Cl)c1-c1noc(-c2cc(O)c(O)c([N+](=O)[O-])c2)n1
REMARK SMILES IDX 16 1 17 2 18 3 20 4 22 5 26 6 15 7 12 8 13 9 27 10 14 11
REMARK SMILES IDX 11 12 1 13 2 14 3 15 4 16 5 17 9 18 6 19 7 20 10 21 8 22
REMARK SMILES IDX 19 23 23 25 24 26 25 27 21 28
REMARK H PARENT 19 24 21 29
REMARK Flexibility Score: inf
ROOT
ATOM      1  C   UNL     1      -2.582   0.186   0.053  1.00  0.00     0.051 A 
ATOM      2  C   UNL     1      -2.952  -0.912   0.845  1.00  0.00     0.064 A 
ATOM      3  C   UNL     1      -4.290  -1.132   1.174  1.00  0.00     0.165 A 
ATOM      4  C   UNL     1      -5.296  -0.267   0.729  1.00  0.00     0.237 A 
ATOM      5  C   UNL     1      -4.935   0.831  -0.061  1.00  0.00     0.315 A 
ATOM      6  C   UNL     1      -3.585   1.057  -0.399  1.00  0.00     0.104 A 
ENDROOT
BRANCH   1   7
ATOM      7  C   UNL     1      -1.174   0.388  -0.272  1.00  0.00     0.258 A 
ATOM      8  C   UNL     1       0.904   0.350  -0.536  1.00  0.00     0.210 A 
ATOM      9  N   UNL     1       0.524   1.410  -1.262  1.00  0.00    -0.056 NA
ATOM     10  N   UNL     1      -0.119  -0.296   0.113  1.00  0.00    -0.186 NA
ATOM     11  O   UNL     1      -0.862   1.433  -1.095  1.00  0.00    -0.334 OA
BRANCH   8  12
ATOM     12  C   UNL     1       2.285  -0.075  -0.409  1.00  0.00     0.113 A 
ATOM     13  C   UNL     1       2.751   1.904   1.128  1.00  0.00     0.047 C 
ATOM     14  C   UNL     1       3.191   0.662   0.383  1.00  0.00    -0.007 A 
ATOM     15  C   UNL     1       4.532   0.242   0.429  1.00  0.00     0.112 A 
ATOM     16  Cl  UNL     1       5.699   1.165   1.328  1.00  0.00    -0.077 Cl
ATOM     17  C   UNL     1       4.959  -0.912  -0.250  1.00  0.00     0.210 A 
ATOM     18  C   UNL     1       2.711  -1.230  -1.093  1.00  0.00     0.298 A 
ATOM     19  C   UNL     1       6.383  -1.390  -0.207  1.00  0.00     0.127 C 
ATOM     20  N   UNL     1       4.046  -1.651  -1.006  1.00  0.00    -0.157 N 
ATOM     21  Cl  UNL     1       1.593  -2.147  -2.076  1.00  0.00    -0.009 Cl
ATOM     22  O   UNL     1       4.433  -2.703  -1.622  1.00  0.00    -0.617 OA
ENDBRANCH   8  12
ENDBRANCH   1   7
BRANCH   3  23
ATOM     23  O   UNL     1      -4.634  -2.208   1.946  1.00  0.00    -0.504 OA
ATOM     24  H   UNL     1      -3.848  -2.740   2.148  1.00  0.00     0.293 HD
ENDBRANCH   3  23
BRANCH   5  25
ATOM     25  N   UNL     1      -5.945   1.772  -0.554  1.00  0.00     0.066 N 
ATOM     26  O   UNL     1      -7.132   1.534  -0.285  1.00  0.00    -0.258 OA
ATOM     27  O   UNL     1      -5.556   2.750  -1.206  1.00  0.00    -0.258 OA
ENDBRANCH   5  25
BRANCH   4  28
ATOM     28  O   UNL     1      -6.579  -0.564   1.106  1.00  0.00    -0.500 OA
ATOM     29  H   UNL     1      -7.211   0.079   0.727  1.00  0.00     0.294 HD
ENDBRANCH   4  28
TORSDOF 5
