REMARK SMILES OCCN1CCN(CCCN2c3ccccc3Sc3ccc(C(F)(F)F)cc32)CC1
REMARK SMILES IDX 8 1 7 2 4 3 5 4 30 5 6 6 29 7 3 8 2 9 1 10 9 12 10 13 11 14
REMARK SMILES IDX 12 15 28 16 13 17 17 18 19 19 27 20 14 21 16 22 18 23 20 24
REMARK SMILES IDX 22 25 15 26 21 27 23 28 24 29 25 30 26 31
REMARK H PARENT 1 11
REMARK Flexibility Score: inf
ROOT
ATOM      1  C   UNL     1       0.240   1.379  -2.261  1.00  0.00     0.086 C 
ENDROOT
BRANCH   1   2
ATOM      2  N   UNL     1       1.688   1.218  -2.168  1.00  0.00    -0.301 NA
ATOM      3  N   UNL     1       3.007  -0.169   0.035  1.00  0.00    -0.299 NA
ATOM      4  C   UNL     1       2.549  -0.957  -1.123  1.00  0.00     0.100 C 
ATOM      5  C   UNL     1       3.482   1.157  -0.371  1.00  0.00     0.100 C 
ATOM      6  C   UNL     1       2.203  -0.132  -2.390  1.00  0.00     0.100 C 
ATOM      7  C   UNL     1       2.350   1.941  -1.079  1.00  0.00     0.100 C 
BRANCH   3   8
ATOM      8  C   UNL     1       3.924  -0.906   0.913  1.00  0.00     0.112 C 
BRANCH   8   9
ATOM      9  C   UNL     1       5.369  -1.123   0.420  1.00  0.00     0.171 C 
BRANCH   9  10
ATOM     10  O   UNL     1       6.157   0.061   0.514  1.00  0.00    -0.395 OA
ATOM     11  H   UNL     1       6.082   0.396   1.425  1.00  0.00     0.210 HD
ENDBRANCH   9  10
ENDBRANCH   8   9
ENDBRANCH   3   8
ENDBRANCH   1   2
BRANCH   1  12
ATOM     12  C   UNL     1      -0.668   0.456  -1.432  1.00  0.00     0.037 C 
BRANCH  12  13
ATOM     13  C   UNL     1      -0.662   0.754   0.072  1.00  0.00     0.124 C 
BRANCH  13  14
ATOM     14  N   UNL     1      -1.687  -0.048   0.801  1.00  0.00    -0.340 N 
ATOM     15  C   UNL     1      -1.306  -1.401   1.024  1.00  0.00     0.055 A 
ATOM     16  C   UNL     1      -3.026   0.370   0.573  1.00  0.00     0.056 A 
ATOM     17  C   UNL     1      -0.086  -1.698   1.662  1.00  0.00     0.027 A 
ATOM     18  C   UNL     1      -2.141  -2.480   0.680  1.00  0.00     0.036 A 
ATOM     19  C   UNL     1      -4.033  -0.531   0.184  1.00  0.00     0.036 A 
ATOM     20  C   UNL     1      -3.394   1.714   0.789  1.00  0.00     0.040 A 
ATOM     21  C   UNL     1       0.311  -3.013   1.912  1.00  0.00     0.002 A 
ATOM     22  C   UNL     1      -1.733  -3.801   0.927  1.00  0.00     0.017 A 
ATOM     23  S   UNL     1      -3.716  -2.258  -0.120  1.00  0.00    -0.086 SA
ATOM     24  C   UNL     1      -5.347  -0.079  -0.022  1.00  0.00     0.018 A 
ATOM     25  C   UNL     1      -4.706   2.174   0.580  1.00  0.00     0.058 A 
ATOM     26  C   UNL     1      -0.511  -4.067   1.538  1.00  0.00     0.001 A 
ATOM     27  C   UNL     1      -5.682   1.261   0.173  1.00  0.00     0.014 A 
BRANCH  25  28
ATOM     28  C   UNL     1      -5.063   3.616   0.834  1.00  0.00     0.416 C 
ATOM     29  F   UNL     1      -5.981   4.097  -0.050  1.00  0.00    -0.166 F 
ATOM     30  F   UNL     1      -5.597   3.810   2.071  1.00  0.00    -0.166 F 
ATOM     31  F   UNL     1      -3.994   4.456   0.749  1.00  0.00    -0.166 F 
ENDBRANCH  25  28
ENDBRANCH  13  14
ENDBRANCH  12  13
ENDBRANCH   1  12
TORSDOF 8
