REMARK SMILES CCN1CC(CCN2CCOCC2)C(c2ccccc2)(c2ccccc2)C1=O
REMARK SMILES IDX 6 1 5 2 3 3 4 4 27 5 14 6 28 7 2 8 1 9 15 10 16 11 20 12
REMARK SMILES IDX 17 13 19 14 18 15 21 16 22 17 26 18 23 19 25 20 24 21 7 22
REMARK SMILES IDX 8 23 9 24 13 25 10 26 12 27 11 28
REMARK H PARENT
REMARK Flexibility Score: inf
ROOT
ATOM      1  C   UNL     1       0.825   0.015  -0.482  1.00  0.00     0.023 C 
ENDROOT
BRANCH   1   2
ATOM      2  C   UNL     1      -0.189  -0.816   0.362  1.00  0.00     0.034 C 
ATOM      3  N   UNL     1      -1.602  -1.760  -1.232  1.00  0.00    -0.342 N 
ATOM      4  C   UNL     1      -0.523  -2.127  -0.357  1.00  0.00     0.125 C 
ATOM      5  C   UNL     1      -2.271  -0.616  -0.806  1.00  0.00     0.238 C 
ATOM      6  C   UNL     1      -1.618  -0.144   0.531  1.00  0.00     0.104 C 
ATOM      7  O   UNL     1      -3.236  -0.129  -1.378  1.00  0.00    -0.273 OA
BRANCH   3   8
ATOM      8  C   UNL     1      -1.971  -2.543  -2.396  1.00  0.00     0.116 C 
ATOM      9  C   UNL     1      -1.106  -2.199  -3.597  1.00  0.00     0.027 C 
ENDBRANCH   3   8
BRANCH   6  10
ATOM     10  C   UNL     1      -1.483   1.383   0.719  1.00  0.00    -0.028 A 
ATOM     11  C   UNL     1      -0.991   1.888   1.942  1.00  0.00     0.005 A 
ATOM     12  C   UNL     1      -1.791   2.311  -0.289  1.00  0.00     0.005 A 
ATOM     13  C   UNL     1      -0.826   3.260   2.148  1.00  0.00     0.000 A 
ATOM     14  C   UNL     1      -1.625   3.684  -0.081  1.00  0.00     0.000 A 
ATOM     15  C   UNL     1      -1.144   4.158   1.136  1.00  0.00     0.000 A 
ENDBRANCH   6  10
BRANCH   6  16
ATOM     16  C   UNL     1      -2.489  -0.728   1.686  1.00  0.00    -0.028 A 
ATOM     17  C   UNL     1      -1.991  -1.570   2.695  1.00  0.00     0.005 A 
ATOM     18  C   UNL     1      -3.853  -0.370   1.753  1.00  0.00     0.005 A 
ATOM     19  C   UNL     1      -2.825  -2.049   3.712  1.00  0.00     0.000 A 
ATOM     20  C   UNL     1      -4.683  -0.849   2.769  1.00  0.00     0.000 A 
ATOM     21  C   UNL     1      -4.169  -1.692   3.747  1.00  0.00     0.000 A 
ENDBRANCH   6  16
ENDBRANCH   1   2
BRANCH   1  22
ATOM     22  C   UNL     1       2.247  -0.578  -0.468  1.00  0.00     0.085 C 
BRANCH  22  23
ATOM     23  N   UNL     1       3.177   0.154  -1.340  1.00  0.00    -0.299 NA
ATOM     24  C   UNL     1       4.495  -0.513  -1.426  1.00  0.00     0.113 C 
ATOM     25  C   UNL     1       3.339   1.569  -0.933  1.00  0.00     0.113 C 
ATOM     26  C   UNL     1       5.563   0.121  -0.521  1.00  0.00     0.175 C 
ATOM     27  C   UNL     1       4.676   2.159  -1.406  1.00  0.00     0.175 C 
ATOM     28  O   UNL     1       5.807   1.503  -0.816  1.00  0.00    -0.379 OA
ENDBRANCH  22  23
ENDBRANCH   1  22
TORSDOF 6
