REMARK SMILES CN(C)CCC(c1ccccc1)c1ccccn1
REMARK SMILES IDX 5 1 4 2 2 3 1 4 3 5 6 6 7 7 8 8 12 9 9 10 11 11 10 12 13 13
REMARK SMILES IDX 14 14 18 15 15 16 17 17 16 18
REMARK H PARENT
REMARK Flexibility Score: inf
ROOT
ATOM      1  C   UNL     1       0.816  -0.681  -0.187  1.00  0.00     0.030 C 
ENDROOT
BRANCH   1   2
ATOM      2  C   UNL     1       2.075   0.113   0.195  1.00  0.00     0.085 C 
BRANCH   2   3
ATOM      3  N   UNL     1       3.251  -0.259  -0.615  1.00  0.00    -0.309 NA
ATOM      4  C   UNL     1       4.338   0.696  -0.380  1.00  0.00     0.104 C 
ATOM      5  C   UNL     1       3.719  -1.615  -0.316  1.00  0.00     0.104 C 
ENDBRANCH   2   3
ENDBRANCH   1   2
BRANCH   1   6
ATOM      6  C   UNL     1      -0.442  -0.188   0.568  1.00  0.00     0.069 C 
BRANCH   6   7
ATOM      7  C   UNL     1      -0.928   1.224   0.246  1.00  0.00    -0.039 A 
ATOM      8  C   UNL     1      -1.673   1.917   1.217  1.00  0.00     0.004 A 
ATOM      9  C   UNL     1      -0.697   1.855  -0.987  1.00  0.00     0.004 A 
ATOM     10  C   UNL     1      -2.156   3.204   0.970  1.00  0.00     0.000 A 
ATOM     11  C   UNL     1      -1.179   3.144  -1.231  1.00  0.00     0.000 A 
ATOM     12  C   UNL     1      -1.907   3.818  -0.253  1.00  0.00     0.000 A 
ENDBRANCH   6   7
BRANCH   6  13
ATOM     13  C   UNL     1      -1.558  -1.222   0.435  1.00  0.00     0.048 A 
ATOM     14  C   UNL     1      -2.229  -1.419  -0.773  1.00  0.00     0.024 A 
ATOM     15  N   UNL     1      -1.842  -1.954   1.544  1.00  0.00    -0.261 NA
ATOM     16  C   UNL     1      -3.228  -2.387  -0.842  1.00  0.00     0.003 A 
ATOM     17  C   UNL     1      -2.817  -2.884   1.446  1.00  0.00     0.111 A 
ATOM     18  C   UNL     1      -3.531  -3.135   0.288  1.00  0.00     0.020 A 
ENDBRANCH   6  13
ENDBRANCH   1   6
TORSDOF 5
