REMARK SMILES CCN(CC)CCOc1ccc2nc(N(C)C)sc2c1
REMARK SMILES IDX 7 1 6 2 3 3 2 4 1 5 4 6 5 7 8 8 9 9 10 10 20 11 11 12 19 13
REMARK SMILES IDX 12 14 18 15 13 16 14 17 15 18 16 19 17 20
REMARK H PARENT
REMARK Flexibility Score: inf
ROOT
ATOM      1  C   UNL     1      -1.861   0.459   0.433  1.00  0.00     0.245 C 
ENDROOT
BRANCH   1   2
ATOM      2  C   UNL     1      -3.300   0.937   0.696  1.00  0.00     0.126 C 
BRANCH   2   3
ATOM      3  N   UNL     1      -4.401   0.089   0.194  1.00  0.00    -0.301 NA
BRANCH   3   4
ATOM      4  C   UNL     1      -4.391  -0.098  -1.266  1.00  0.00     0.081 C 
ATOM      5  C   UNL     1      -4.452   1.207  -2.055  1.00  0.00     0.021 C 
ENDBRANCH   3   4
BRANCH   3   6
ATOM      6  C   UNL     1      -4.451  -1.194   0.916  1.00  0.00     0.081 C 
ATOM      7  C   UNL     1      -5.799  -1.896   0.788  1.00  0.00     0.021 C 
ENDBRANCH   3   6
ENDBRANCH   2   3
ENDBRANCH   1   2
BRANCH   1   8
ATOM      8  O   UNL     1      -0.965   1.405   1.027  1.00  0.00    -0.492 OA
BRANCH   8   9
ATOM      9  C   UNL     1       0.377   1.158   0.907  1.00  0.00     0.120 A 
ATOM     10  C   UNL     1       1.192   2.111   1.516  1.00  0.00     0.049 A 
ATOM     11  C   UNL     1       0.947   0.065   0.247  1.00  0.00     0.067 A 
ATOM     12  C   UNL     1       2.586   1.998   1.482  1.00  0.00     0.034 A 
ATOM     13  C   UNL     1       2.352  -0.038   0.219  1.00  0.00     0.060 A 
ATOM     14  C   UNL     1       3.178   0.905   0.821  1.00  0.00     0.084 A 
ATOM     15  S   UNL     1       3.333  -1.248  -0.503  1.00  0.00    -0.097 S 
ATOM     16  N   UNL     1       4.533   0.663   0.706  1.00  0.00    -0.220 NA
ATOM     17  C   UNL     1       4.772  -0.438   0.026  1.00  0.00     0.185 A 
BRANCH  17  18
ATOM     18  N   UNL     1       6.038  -0.909  -0.216  1.00  0.00    -0.354 N 
ATOM     19  C   UNL     1       6.283  -1.783  -1.355  1.00  0.00     0.145 C 
ATOM     20  C   UNL     1       7.135  -0.016   0.144  1.00  0.00     0.145 C 
ENDBRANCH  17  18
ENDBRANCH   8   9
ENDBRANCH   1   8
TORSDOF 7
