REMARK SMILES COc1ccc(NC(=O)Nc2ccc(F)cc2F)cc1-c1c(Br)cnn1C
REMARK SMILES IDX 3 1 4 2 5 3 6 4 19 5 20 6 2 7 1 8 21 9 22 10 26 11 23 12
REMARK SMILES IDX 24 13 25 14 27 15 7 16 8 17 9 19 10 20 11 22 12 23 17 24
REMARK SMILES IDX 13 25 16 26 18 27 14 28 15 29
REMARK H PARENT 7 18 10 21
REMARK Flexibility Score: inf
ROOT
ATOM      1  C   UNL     1      -2.893   0.985   0.007  1.00  0.00     0.128 A 
ATOM      2  C   UNL     1      -1.871   1.927   0.149  1.00  0.00     0.049 A 
ATOM      3  C   UNL     1      -0.526   1.539   0.081  1.00  0.00     0.030 A 
ATOM      4  C   UNL     1      -0.179   0.206  -0.125  1.00  0.00     0.043 A 
ATOM      5  C   UNL     1      -1.201  -0.739  -0.267  1.00  0.00     0.040 A 
ATOM      6  C   UNL     1      -2.555  -0.366  -0.196  1.00  0.00     0.045 A 
ENDROOT
BRANCH   1   7
ATOM      7  O   UNL     1      -4.231   1.282   0.062  1.00  0.00    -0.496 OA
ATOM      8  C   UNL     1      -4.597   2.656   0.034  1.00  0.00     0.278 C 
ENDBRANCH   1   7
BRANCH   6   9
ATOM      9  C   UNL     1      -3.575  -1.406  -0.352  1.00  0.00     0.086 A 
ATOM     10  C   UNL     1      -3.882  -2.215  -1.426  1.00  0.00     0.064 A 
ATOM     11  N   UNL     1      -4.476  -1.784   0.622  1.00  0.00    -0.267 N 
ATOM     12  Br  UNL     1      -3.100  -2.267  -3.125  1.00  0.00    -0.047 Br
ATOM     13  C   UNL     1      -4.946  -3.029  -1.021  1.00  0.00     0.151 A 
ATOM     14  N   UNL     1      -5.309  -2.780   0.240  1.00  0.00    -0.180 NA
ATOM     15  C   UNL     1      -4.593  -1.270   1.968  1.00  0.00     0.174 C 
ENDBRANCH   6   9
BRANCH   4  16
ATOM     16  N   UNL     1       1.149  -0.260  -0.219  1.00  0.00    -0.308 N 
ATOM     17  C   UNL     1       2.316   0.454   0.016  1.00  0.00     0.323 C 
ATOM     18  H   UNL     1       1.259  -1.251  -0.368  1.00  0.00     0.171 HD
ATOM     19  O   UNL     1       2.365   1.604   0.430  1.00  0.00    -0.248 OA
ATOM     20  N   UNL     1       3.422  -0.324  -0.282  1.00  0.00    -0.305 N 
ATOM     21  H   UNL     1       3.260  -1.180  -0.795  1.00  0.00     0.171 HD
BRANCH  20  22
ATOM     22  C   UNL     1       4.784   0.008  -0.109  1.00  0.00     0.079 A 
ATOM     23  C   UNL     1       5.243   1.156   0.541  1.00  0.00     0.032 A 
ATOM     24  C   UNL     1       5.729  -0.898  -0.617  1.00  0.00     0.149 A 
ATOM     25  C   UNL     1       6.617   1.388   0.665  1.00  0.00     0.041 A 
ATOM     26  C   UNL     1       7.095  -0.676  -0.499  1.00  0.00     0.080 A 
ATOM     27  F   UNL     1       5.303  -2.011  -1.238  1.00  0.00    -0.205 F 
ATOM     28  C   UNL     1       7.527   0.473   0.145  1.00  0.00     0.126 A 
ATOM     29  F   UNL     1       8.840   0.704   0.271  1.00  0.00    -0.207 F 
ENDBRANCH  20  22
ENDBRANCH   4  16
TORSDOF 4
