REMARK SMILES NC(=O)C(c1ccccc1)(c1ccccc1)[C@@H]1CCN(CCc2ccc3c(c2)CCO3)C1
REMARK SMILES IDX 17 1 18 2 19 3 20 4 32 5 4 6 2 7 1 8 3 11 5 12 6 13 10 14
REMARK SMILES IDX 7 15 9 16 8 17 11 18 12 19 16 20 13 21 15 22 14 23 21 24
REMARK SMILES IDX 22 25 23 26 24 27 28 28 25 29 27 30 26 31 29 32 31 33 30 34
REMARK H PARENT 1 9 1 10
REMARK Flexibility Score: inf
ROOT
ATOM      1  C   UNL     1      -1.611  -0.339  -0.805  1.00  0.00     0.029 C 
ATOM      2  C   UNL     1      -1.087  -1.786  -0.932  1.00  0.00     0.022 C 
ATOM      3  C   UNL     1       0.425  -1.643  -0.977  1.00  0.00     0.085 C 
ATOM      4  N   UNL     1       0.639  -0.553  -0.035  1.00  0.00    -0.303 NA
ATOM      5  C   UNL     1      -0.364   0.463  -0.370  1.00  0.00     0.090 C 
ENDROOT
BRANCH   1   6
ATOM      6  C   UNL     1      -2.887  -0.099   0.106  1.00  0.00     0.103 C 
BRANCH   6   7
ATOM      7  C   UNL     1      -2.469  -0.578   1.560  1.00  0.00     0.232 C 
ATOM      8  N   UNL     1      -2.737  -1.875   1.911  1.00  0.00    -0.369 N 
ATOM      9  H   UNL     1      -3.282  -2.504   1.339  1.00  0.00     0.159 HD
ATOM     10  H   UNL     1      -2.458  -2.172   2.837  1.00  0.00     0.159 HD
ATOM     11  O   UNL     1      -1.869   0.110   2.386  1.00  0.00    -0.274 OA
ENDBRANCH   6   7
BRANCH   6  12
ATOM     12  C   UNL     1      -3.264   1.427   0.041  1.00  0.00    -0.028 A 
ATOM     13  C   UNL     1      -3.441   2.058  -1.211  1.00  0.00     0.005 A 
ATOM     14  C   UNL     1      -3.516   2.204   1.184  1.00  0.00     0.005 A 
ATOM     15  C   UNL     1      -3.798   3.406  -1.310  1.00  0.00     0.000 A 
ATOM     16  C   UNL     1      -3.869   3.555   1.085  1.00  0.00     0.000 A 
ATOM     17  C   UNL     1      -4.004   4.157  -0.160  1.00  0.00     0.000 A 
ENDBRANCH   6  12
BRANCH   6  18
ATOM     18  C   UNL     1      -4.167  -0.867  -0.366  1.00  0.00    -0.028 A 
ATOM     19  C   UNL     1      -5.303  -0.895   0.475  1.00  0.00     0.005 A 
ATOM     20  C   UNL     1      -4.283  -1.483  -1.623  1.00  0.00     0.005 A 
ATOM     21  C   UNL     1      -6.474  -1.556   0.098  1.00  0.00     0.000 A 
ATOM     22  C   UNL     1      -5.457  -2.144  -2.000  1.00  0.00     0.000 A 
ATOM     23  C   UNL     1      -6.548  -2.187  -1.138  1.00  0.00     0.000 A 
ENDBRANCH   6  18
ENDBRANCH   1   6
BRANCH   4  24
ATOM     24  C   UNL     1       1.999  -0.007  -0.040  1.00  0.00     0.089 C 
BRANCH  24  25
ATOM     25  C   UNL     1       3.024  -0.988   0.549  1.00  0.00     0.051 C 
BRANCH  25  26
ATOM     26  C   UNL     1       4.406  -0.379   0.619  1.00  0.00    -0.046 A 
ATOM     27  C   UNL     1       4.775   0.404   1.735  1.00  0.00     0.007 A 
ATOM     28  C   UNL     1       5.315  -0.561  -0.436  1.00  0.00     0.011 A 
ATOM     29  C   UNL     1       6.040   0.994   1.812  1.00  0.00     0.047 A 
ATOM     30  C   UNL     1       6.566   0.021  -0.337  1.00  0.00    -0.002 A 
ATOM     31  C   UNL     1       6.915   0.780   0.769  1.00  0.00     0.122 A 
ATOM     32  C   UNL     1       7.682   0.039  -1.308  1.00  0.00     0.081 C 
ATOM     33  O   UNL     1       8.183   1.298   0.704  1.00  0.00    -0.493 OA
ATOM     34  C   UNL     1       8.786   0.574  -0.395  1.00  0.00     0.234 C 
ENDBRANCH  25  26
ENDBRANCH  24  25
ENDBRANCH   4  24
TORSDOF 7
