REMARK SMILES O=c1ccc(-c2cnc(OCC(F)(F)F)nc2)nn1Cc1cncc(F)c1
REMARK SMILES IDX 6 1 7 2 8 3 9 4 16 5 17 6 5 7 19 8 18 9 2 10 3 11 1 12 4 13
REMARK SMILES IDX 20 14 21 15 26 16 25 17 24 18 27 19 23 20 22 21 10 22 11 23
REMARK SMILES IDX 12 24 13 25 14 26 15 27
REMARK H PARENT
REMARK Flexibility Score: inf
ROOT
ATOM      1  C   UNL     1       1.272   0.449  -0.068  1.00  0.00     0.039 A 
ATOM      2  C   UNL     1       2.489   1.043  -0.331  1.00  0.00     0.129 A 
ATOM      3  N   UNL     1       3.637   0.355  -0.522  1.00  0.00    -0.203 NA
ATOM      4  C   UNL     1       3.546  -0.983  -0.426  1.00  0.00     0.316 A 
ATOM      5  N   UNL     1       2.425  -1.664  -0.160  1.00  0.00    -0.203 NA
ATOM      6  C   UNL     1       1.306  -0.927   0.021  1.00  0.00     0.129 A 
ENDROOT
BRANCH   1   7
ATOM      7  C   UNL     1       0.009   1.189   0.149  1.00  0.00     0.094 C 
ATOM      8  N   UNL     1      -2.062   1.367   1.126  1.00  0.00    -0.225 N 
ATOM      9  N   UNL     1      -0.890   0.665   0.925  1.00  0.00    -0.169 NA
ATOM     10  C   UNL     1      -2.349   2.588   0.535  1.00  0.00     0.267 C 
ATOM     11  C   UNL     1      -1.301   3.136  -0.349  1.00  0.00     0.075 C 
ATOM     12  O   UNL     1      -3.389   3.222   0.688  1.00  0.00    -0.268 OA
ATOM     13  C   UNL     1      -0.158   2.480  -0.553  1.00  0.00     0.037 C 
BRANCH   8  14
ATOM     14  C   UNL     1      -3.066   0.725   1.967  1.00  0.00     0.185 C 
BRANCH  14  15
ATOM     15  C   UNL     1      -3.915  -0.238   1.184  1.00  0.00    -0.005 A 
ATOM     16  F   UNL     1      -6.991  -0.402  -0.740  1.00  0.00    -0.205 F 
ATOM     17  C   UNL     1      -5.842  -0.761  -0.153  1.00  0.00     0.141 A 
ATOM     18  C   UNL     1      -5.366  -2.054  -0.267  1.00  0.00     0.150 A 
ATOM     19  C   UNL     1      -5.110   0.164   0.578  1.00  0.00     0.048 A 
ATOM     20  N   UNL     1      -4.210  -2.479   0.295  1.00  0.00    -0.261 NA
ATOM     21  C   UNL     1      -3.510  -1.559   1.001  1.00  0.00     0.116 A 
ENDBRANCH  14  15
ENDBRANCH   8  14
ENDBRANCH   1   7
BRANCH   4  22
ATOM     22  O   UNL     1       4.664  -1.762  -0.608  1.00  0.00    -0.454 OA
BRANCH  22  23
ATOM     23  C   UNL     1       5.845  -0.997  -0.862  1.00  0.00     0.348 C 
BRANCH  23  24
ATOM     24  C   UNL     1       7.036  -1.918  -1.041  1.00  0.00     0.422 C 
ATOM     25  F   UNL     1       8.157  -1.195  -1.283  1.00  0.00    -0.167 F 
ATOM     26  F   UNL     1       7.269  -2.660   0.063  1.00  0.00    -0.167 F 
ATOM     27  F   UNL     1       6.869  -2.759  -2.085  1.00  0.00    -0.167 F 
ENDBRANCH  23  24
ENDBRANCH  22  23
ENDBRANCH   4  22
TORSDOF 6
