REMARK SMILES COc1ccc2c(Oc3ccc4c(C(=O)Nc5ccccc5N)cccc4c3)ccnc2c1
REMARK SMILES IDX 9 1 28 2 27 3 26 4 25 5 24 6 13 7 12 8 11 9 10 10 8 11 7 12
REMARK SMILES IDX 3 13 4 14 33 15 5 16 32 17 6 18 31 19 30 20 29 21 2 22 1 23
REMARK SMILES IDX 14 24 15 25 16 26 17 28 18 29 22 30 19 31 21 32 20 33 23 34
REMARK H PARENT 16 27 23 35 23 36
REMARK Flexibility Score: inf
ROOT
ATOM      1  C   UNL     1      -1.743   1.302   0.836  1.00  0.00     0.128 A 
ATOM      2  C   UNL     1      -1.277   1.589   2.123  1.00  0.00     0.055 A 
ATOM      3  C   UNL     1      -0.013   1.155   2.558  1.00  0.00    -0.014 A 
ATOM      4  C   UNL     1       0.434   1.457   3.857  1.00  0.00     0.009 A 
ATOM      5  C   UNL     1       1.685   1.036   4.308  1.00  0.00     0.001 A 
ATOM      6  C   UNL     1       2.514   0.310   3.461  1.00  0.00     0.014 A 
ATOM      7  C   UNL     1       2.085   0.003   2.160  1.00  0.00     0.048 A 
ATOM      8  C   UNL     1       0.813   0.410   1.683  1.00  0.00    -0.005 A 
ATOM      9  C   UNL     1       0.320   0.129   0.386  1.00  0.00     0.013 A 
ATOM     10  C   UNL     1      -0.943   0.564  -0.031  1.00  0.00     0.048 A 
ENDROOT
BRANCH   1  11
ATOM     11  O   UNL     1      -3.010   1.773   0.555  1.00  0.00    -0.457 OA
BRANCH  11  12
ATOM     12  C   UNL     1      -3.447   1.708  -0.750  1.00  0.00     0.138 A 
ATOM     13  C   UNL     1      -6.012  -1.353  -2.104  1.00  0.00     0.121 A 
ATOM     14  C   UNL     1      -5.585  -1.377  -0.780  1.00  0.00     0.047 A 
ATOM     15  C   UNL     1      -5.583  -0.315  -2.943  1.00  0.00     0.075 A 
ATOM     16  C   UNL     1      -4.739  -0.370  -0.309  1.00  0.00     0.018 A 
ATOM     17  C   UNL     1      -4.741   0.700  -2.501  1.00  0.00     0.078 A 
ATOM     18  C   UNL     1      -4.308   0.672  -1.161  1.00  0.00     0.043 A 
ATOM     19  N   UNL     1      -4.371   1.671  -3.360  1.00  0.00    -0.256 NA
ATOM     20  C   UNL     1      -3.565   2.659  -2.911  1.00  0.00     0.115 A 
ATOM     21  C   UNL     1      -3.082   2.728  -1.622  1.00  0.00     0.068 A 
BRANCH  13  22
ATOM     22  O   UNL     1      -6.839  -2.268  -2.698  1.00  0.00    -0.497 OA
ATOM     23  C   UNL     1      -7.317  -3.334  -1.882  1.00  0.00     0.278 C 
ENDBRANCH  13  22
ENDBRANCH  11  12
ENDBRANCH   1  11
BRANCH   7  24
ATOM     24  C   UNL     1       3.020  -0.760   1.296  1.00  0.00     0.256 C 
ATOM     25  O   UNL     1       2.686  -1.868   0.896  1.00  0.00    -0.269 OA
ATOM     26  N   UNL     1       4.192  -0.086   1.034  1.00  0.00    -0.320 N 
ATOM     27  H   UNL     1       4.308   0.855   1.403  1.00  0.00     0.170 HD
BRANCH  26  28
ATOM     28  C   UNL     1       5.263  -0.488   0.211  1.00  0.00     0.064 A 
ATOM     29  C   UNL     1       5.310  -1.702  -0.477  1.00  0.00     0.028 A 
ATOM     30  C   UNL     1       6.324   0.437   0.079  1.00  0.00     0.055 A 
ATOM     31  C   UNL     1       6.414  -2.011  -1.275  1.00  0.00     0.002 A 
ATOM     32  C   UNL     1       7.444   0.095  -0.684  1.00  0.00     0.028 A 
ATOM     33  C   UNL     1       7.479  -1.117  -1.378  1.00  0.00     0.002 A 
BRANCH  30  34
ATOM     34  N   UNL     1       6.351   1.597   0.901  1.00  0.00    -0.397 N 
ATOM     35  H   UNL     1       6.970   2.305   0.508  1.00  0.00     0.156 HD
ATOM     36  H   UNL     1       6.707   1.335   1.820  1.00  0.00     0.156 HD
ENDBRANCH  30  34
ENDBRANCH  26  28
ENDBRANCH   7  24
TORSDOF 6
