REMARK SMILES NS(=O)(=O)c1cc2c(cc1Cl)NC(C1CC3C=CC1C3)NS2(=O)=O
REMARK SMILES IDX 5 1 6 2 7 3 8 4 9 5 10 6 11 7 12 8 13 9 21 10 22 11 23 12
REMARK SMILES IDX 24 13 2 16 3 17 4 18 1 19 14 22 15 23 19 24 16 25 18 26
REMARK SMILES IDX 20 27 17 28
REMARK H PARENT 12 14 21 15 1 20 1 21
REMARK Flexibility Score: inf
ROOT
ATOM      1  C   UNL     1       4.031   0.099  -0.626  1.00  0.00     0.102 A 
ATOM      2  C   UNL     1       3.139   1.172  -0.503  1.00  0.00     0.047 A 
ATOM      3  C   UNL     1       1.788   0.915  -0.246  1.00  0.00     0.107 A 
ATOM      4  C   UNL     1       1.283  -0.381  -0.128  1.00  0.00     0.057 A 
ATOM      5  C   UNL     1       2.204  -1.436  -0.212  1.00  0.00     0.049 A 
ATOM      6  C   UNL     1       3.566  -1.208  -0.474  1.00  0.00     0.063 A 
ATOM      7  Cl  UNL     1       4.582  -2.603  -0.535  1.00  0.00    -0.083 Cl
ATOM      8  N   UNL     1      -0.044  -0.666   0.220  1.00  0.00    -0.368 N 
ATOM      9  C   UNL     1      -1.048   0.349  -0.058  1.00  0.00     0.166 C 
ATOM     10  N   UNL     1      -0.641   1.537   0.655  1.00  0.00    -0.189 NA
ATOM     11  S   UNL     1       0.692   2.275  -0.027  1.00  0.00     0.244 S 
ATOM     12  O   UNL     1       0.329   2.747  -1.343  1.00  0.00    -0.207 OA
ATOM     13  O   UNL     1       1.253   3.137   0.988  1.00  0.00    -0.207 OA
ATOM     14  H   UNL     1      -0.326  -1.593  -0.093  1.00  0.00     0.162 HD
ATOM     15  H   UNL     1      -0.524   1.411   1.658  1.00  0.00     0.143 HD
ENDROOT
BRANCH   1  16
ATOM     16  S   UNL     1       5.725   0.452  -1.000  1.00  0.00     0.239 S 
ATOM     17  O   UNL     1       5.899   1.886  -0.968  1.00  0.00    -0.207 OA
ATOM     18  O   UNL     1       6.108  -0.336  -2.147  1.00  0.00    -0.207 OA
BRANCH  16  19
ATOM     19  N   UNL     1       6.561  -0.162   0.323  1.00  0.00    -0.225 NA
ATOM     20  H   UNL     1       7.143  -0.944   0.016  1.00  0.00     0.137 HD
ATOM     21  H   UNL     1       5.973  -0.412   1.116  1.00  0.00     0.137 HD
ENDBRANCH  16  19
ENDBRANCH   1  16
BRANCH   9  22
ATOM     22  C   UNL     1      -2.416  -0.106   0.484  1.00  0.00     0.035 C 
ATOM     23  C   UNL     1      -3.527   0.993   0.325  1.00  0.00     0.015 C 
ATOM     24  C   UNL     1      -3.037  -1.293  -0.309  1.00  0.00     0.018 C 
ATOM     25  C   UNL     1      -4.639   0.260  -0.454  1.00  0.00     0.012 C 
ATOM     26  C   UNL     1      -4.220  -1.791   0.494  1.00  0.00    -0.027 C 
ATOM     27  C   UNL     1      -3.806  -0.577  -1.426  1.00  0.00     0.016 C 
ATOM     28  C   UNL     1      -5.175  -0.853   0.415  1.00  0.00    -0.028 C 
ENDBRANCH   9  22
TORSDOF 3
