REMARK SMILES C=CC(=O)N1CC[C@H](n2nc(C#Cc3cc(OC)cc(OC)c3)c3c(N)ncnc32)C1
REMARK SMILES IDX 9 1 10 2 11 3 24 4 25 5 27 6 28 7 29 8 30 9 8 10 5 11 6 12
REMARK SMILES IDX 31 13 7 14 3 15 4 16 2 17 1 18 12 19 13 20 14 21 15 22 23 23
REMARK SMILES IDX 16 24 20 25 19 26 17 27 18 28 21 29 22 30 26 31
REMARK H PARENT 26 32 26 33
REMARK Flexibility Score: inf
ROOT
ATOM      1  N   UNL     1      -0.039  -2.447  -0.271  1.00  0.00    -0.241 N 
ATOM      2  N   UNL     1       0.085  -1.241  -0.885  1.00  0.00    -0.161 NA
ATOM      3  C   UNL     1       0.457  -0.423   0.103  1.00  0.00     0.148 A 
ATOM      4  C   UNL     1       0.582  -1.074   1.343  1.00  0.00     0.097 A 
ATOM      5  C   UNL     1       0.924  -0.756   2.661  1.00  0.00     0.139 A 
ATOM      6  N   UNL     1       0.925  -1.742   3.581  1.00  0.00    -0.219 NA
ATOM      7  C   UNL     1       0.606  -2.989   3.186  1.00  0.00     0.226 A 
ATOM      8  N   UNL     1       0.262  -3.405   1.956  1.00  0.00    -0.217 NA
ATOM      9  C   UNL     1       0.263  -2.395   1.068  1.00  0.00     0.164 A 
ENDROOT
BRANCH   1  10
ATOM     10  C   UNL     1      -0.452  -3.568  -1.097  1.00  0.00     0.131 C 
ATOM     11  N   UNL     1      -2.467  -4.624  -0.401  1.00  0.00    -0.337 N 
ATOM     12  C   UNL     1      -1.385  -5.416   0.160  1.00  0.00     0.122 C 
ATOM     13  C   UNL     1      -1.966  -3.595  -1.298  1.00  0.00     0.147 C 
ATOM     14  C   UNL     1      -0.138  -4.985  -0.603  1.00  0.00     0.051 C 
BRANCH  11  15
ATOM     15  C   UNL     1      -3.817  -4.849  -0.288  1.00  0.00     0.246 C 
ATOM     16  O   UNL     1      -4.658  -4.255  -0.956  1.00  0.00    -0.270 OA
BRANCH  15  17
ATOM     17  C   UNL     1      -4.264  -5.903   0.653  1.00  0.00     0.063 C 
ATOM     18  C   UNL     1      -3.996  -5.853   1.964  1.00  0.00     0.014 C 
ENDBRANCH  15  17
ENDBRANCH  11  15
ENDBRANCH   1  10
BRANCH   3  19
ATOM     19  C   UNL     1       0.676   0.949  -0.207  1.00  0.00    -0.039 C 
ATOM     20  C   UNL     1       0.869   2.110  -0.446  1.00  0.00    -0.060 C 
BRANCH  20  21
ATOM     21  C   UNL     1       1.107   3.494  -0.715  1.00  0.00     0.032 A 
ATOM     22  C   UNL     1       0.082   4.291  -1.227  1.00  0.00     0.064 A 
ATOM     23  C   UNL     1       2.365   4.047  -0.459  1.00  0.00     0.064 A 
ATOM     24  C   UNL     1       0.304   5.645  -1.486  1.00  0.00     0.123 A 
ATOM     25  C   UNL     1       2.595   5.399  -0.714  1.00  0.00     0.123 A 
ATOM     26  C   UNL     1       1.561   6.193  -1.227  1.00  0.00     0.092 A 
BRANCH  24  27
ATOM     27  O   UNL     1      -0.780   6.316  -1.983  1.00  0.00    -0.497 OA
ATOM     28  C   UNL     1      -0.595   7.691  -2.299  1.00  0.00     0.278 C 
ENDBRANCH  24  27
BRANCH  25  29
ATOM     29  O   UNL     1       3.773   6.066  -0.507  1.00  0.00    -0.497 OA
ATOM     30  C   UNL     1       4.865   5.306  -0.007  1.00  0.00     0.278 C 
ENDBRANCH  25  29
ENDBRANCH  20  21
ENDBRANCH   3  19
BRANCH   5  31
ATOM     31  N   UNL     1       1.259   0.514   3.103  1.00  0.00    -0.383 N 
ATOM     32  H   UNL     1       1.206   0.572   4.115  1.00  0.00     0.158 HD
ATOM     33  H   UNL     1       0.846   1.283   2.592  1.00  0.00     0.158 HD
ENDBRANCH   5  31
TORSDOF 8
