REMARK SMILES C[C@@H]1c2nnn(-c3ncc(F)cn3)c2CCN1C(=O)c1cccc(C(F)(F)F)c1Cl
REMARK SMILES IDX 18 1 19 2 17 3 1 4 2 5 3 6 16 7 14 8 4 9 15 10 6 11 5 12
REMARK SMILES IDX 7 13 8 14 13 15 9 16 12 17 10 18 11 19 20 20 29 21 21 22
REMARK SMILES IDX 30 23 24 24 22 25 23 26 25 27 26 28 27 29 28 30
REMARK H PARENT
REMARK Flexibility Score: inf
ROOT
ATOM      1  C   UNL     1      -1.692  -0.417  -1.283  1.00  0.00     0.255 C 
ATOM      2  O   UNL     1      -1.806  -0.733  -2.464  1.00  0.00    -0.269 OA
ENDROOT
BRANCH   1   3
ATOM      3  N   UNL     1      -0.601   0.273  -0.761  1.00  0.00    -0.330 N 
ATOM      4  C   UNL     1      -1.044   2.183   0.783  1.00  0.00     0.038 C 
ATOM      5  C   UNL     1      -0.498   0.763   0.648  1.00  0.00     0.135 C 
ATOM      6  C   UNL     1       0.935   0.679   1.060  1.00  0.00     0.109 A 
ATOM      7  C   UNL     1       0.463   0.697  -1.702  1.00  0.00     0.127 C 
ATOM      8  C   UNL     1       1.993   0.455   0.210  1.00  0.00     0.075 A 
ATOM      9  N   UNL     1       1.389   0.799   2.335  1.00  0.00    -0.132 NA
ATOM     10  C   UNL     1       1.873   0.247  -1.252  1.00  0.00     0.080 C 
ATOM     11  N   UNL     1       3.106   0.421   1.022  1.00  0.00    -0.182 N 
ATOM     12  N   UNL     1       2.710   0.653   2.309  1.00  0.00    -0.059 NA
BRANCH  11  13
ATOM     13  C   UNL     1       4.474   0.179   0.677  1.00  0.00     0.252 A 
ATOM     14  N   UNL     1       4.772  -0.067  -0.624  1.00  0.00    -0.217 NA
ATOM     15  N   UNL     1       5.399   0.203   1.668  1.00  0.00    -0.217 NA
ATOM     16  C   UNL     1       6.073  -0.297  -0.915  1.00  0.00     0.156 A 
ATOM     17  C   UNL     1       6.682  -0.034   1.316  1.00  0.00     0.156 A 
ATOM     18  C   UNL     1       7.072  -0.291   0.026  1.00  0.00     0.159 A 
ATOM     19  F   UNL     1       8.348  -0.522  -0.296  1.00  0.00    -0.204 F 
ENDBRANCH  11  13
ENDBRANCH   1   3
BRANCH   1  20
ATOM     20  C   UNL     1      -2.760  -0.862  -0.370  1.00  0.00     0.059 A 
ATOM     21  C   UNL     1      -4.007  -0.219  -0.328  1.00  0.00     0.066 A 
ATOM     22  C   UNL     1      -2.511  -2.004   0.403  1.00  0.00     0.015 A 
ATOM     23  Cl  UNL     1      -4.301   1.176  -1.312  1.00  0.00    -0.083 Cl
ATOM     24  C   UNL     1      -5.006  -0.706   0.532  1.00  0.00     0.075 A 
ATOM     25  C   UNL     1      -3.496  -2.488   1.255  1.00  0.00     0.002 A 
ATOM     26  C   UNL     1      -4.732  -1.843   1.322  1.00  0.00     0.015 A 
BRANCH  24  27
ATOM     27  C   UNL     1      -6.357  -0.044   0.628  1.00  0.00     0.417 C 
ATOM     28  F   UNL     1      -7.035  -0.036  -0.551  1.00  0.00    -0.166 F 
ATOM     29  F   UNL     1      -6.284   1.250   1.044  1.00  0.00    -0.166 F 
ATOM     30  F   UNL     1      -7.189  -0.660   1.518  1.00  0.00    -0.166 F 
ENDBRANCH  24  27
ENDBRANCH   1  20
TORSDOF 4
