REMARK SMILES CCc1cc2c(cc1CC)CC(NC[C@H](O)c1ccc(O)c3[nH]c(=O)ccc13)C2
REMARK SMILES IDX 14 1 13 2 12 4 3 5 4 6 8 7 5 8 7 9 6 10 29 11 11 12 2 13
REMARK SMILES IDX 1 14 9 15 10 16 15 17 16 18 17 20 18 21 28 22 19 23 22 24
REMARK SMILES IDX 27 25 20 26 23 27 26 28 24 29 25 31 21 32
REMARK H PARENT 13 3 16 19 23 30 21 33
REMARK Flexibility Score: inf
ROOT
ATOM      1  C   UNL     1       1.770   0.920   0.771  1.00  0.00     0.118 C 
ENDROOT
BRANCH   1   2
ATOM      2  N   UNL     1       0.962   0.301  -0.299  1.00  0.00    -0.310 NA
ATOM      3  H   UNL     1       1.006   0.920  -1.113  1.00  0.00     0.123 HD
BRANCH   2   4
ATOM      4  C   UNL     1      -0.440   0.118   0.099  1.00  0.00     0.062 C 
ATOM      5  C   UNL     1      -5.054   1.005  -0.036  1.00  0.00    -0.045 A 
ATOM      6  C   UNL     1      -3.832   1.584   0.363  1.00  0.00     0.008 A 
ATOM      7  C   UNL     1      -5.047  -0.214  -0.769  1.00  0.00    -0.045 A 
ATOM      8  C   UNL     1      -2.641   0.961   0.035  1.00  0.00    -0.043 A 
ATOM      9  C   UNL     1      -3.815  -0.814  -1.106  1.00  0.00     0.008 A 
ATOM     10  C   UNL     1      -2.633  -0.225  -0.695  1.00  0.00    -0.043 A 
ATOM     11  C   UNL     1      -1.246   1.423   0.322  1.00  0.00     0.055 C 
ATOM     12  C   UNL     1      -1.232  -0.674  -0.973  1.00  0.00     0.055 C 
BRANCH   5  13
ATOM     13  C   UNL     1      -6.325   1.730   0.355  1.00  0.00     0.032 C 
ATOM     14  C   UNL     1      -6.948   1.168   1.623  1.00  0.00     0.009 C 
ENDBRANCH   5  13
BRANCH   7  15
ATOM     15  C   UNL     1      -6.309  -0.919  -1.221  1.00  0.00     0.032 C 
ATOM     16  C   UNL     1      -6.560  -2.212  -0.453  1.00  0.00     0.009 C 
ENDBRANCH   7  15
ENDBRANCH   2   4
ENDBRANCH   1   2
BRANCH   1  17
ATOM     17  C   UNL     1       3.251   1.144   0.349  1.00  0.00     0.159 C 
BRANCH  17  18
ATOM     18  O   UNL     1       3.248   1.791  -0.933  1.00  0.00    -0.387 OA
ATOM     19  H   UNL     1       3.348   1.082  -1.593  1.00  0.00     0.211 HD
ENDBRANCH  17  18
BRANCH  17  20
ATOM     20  C   UNL     1       4.183  -0.061   0.306  1.00  0.00    -0.009 A 
ATOM     21  C   UNL     1       3.677  -1.377   0.364  1.00  0.00     0.011 A 
ATOM     22  C   UNL     1       5.587   0.108   0.198  1.00  0.00     0.008 A 
ATOM     23  C   UNL     1       4.518  -2.495   0.336  1.00  0.00     0.049 A 
ATOM     24  C   UNL     1       6.421  -1.027   0.177  1.00  0.00     0.091 A 
ATOM     25  C   UNL     1       6.245   1.422   0.096  1.00  0.00     0.016 C 
ATOM     26  C   UNL     1       5.889  -2.314   0.247  1.00  0.00     0.139 A 
ATOM     27  N   UNL     1       7.813  -0.877   0.087  1.00  0.00    -0.319 N 
ATOM     28  C   UNL     1       7.579   1.525   0.010  1.00  0.00     0.072 C 
ATOM     29  C   UNL     1       8.448   0.327   0.010  1.00  0.00     0.248 C 
ATOM     30  H   UNL     1       8.382  -1.715   0.081  1.00  0.00     0.170 HD
ATOM     31  O   UNL     1       9.667   0.437  -0.061  1.00  0.00    -0.270 OA
BRANCH  26  32
ATOM     32  O   UNL     1       6.741  -3.385   0.223  1.00  0.00    -0.506 OA
ATOM     33  H   UNL     1       6.217  -4.202   0.275  1.00  0.00     0.293 HD
ENDBRANCH  26  32
ENDBRANCH  17  20
ENDBRANCH   1  17
TORSDOF 8
