REMARK SMILES c1cnc2cc3c(cc2n1)[C@@H]1CNC[C@H]3C1
REMARK SMILES IDX 1 1 2 2 3 3 4 4 5 5 6 6 7 7 8 8 9 9 10 10 11 11 12 12 13 13
REMARK SMILES IDX 14 14 15 15 16 16
REMARK H PARENT 13 17
REMARK Flexibility Score: inf
ROOT
ATOM      1  C   UNL     1       4.371  -1.027  -0.315  1.00  0.00     0.132 A 
ATOM      2  C   UNL     1       4.450   0.318  -0.616  1.00  0.00     0.132 A 
ATOM      3  N   UNL     1       3.376   1.134  -0.569  1.00  0.00    -0.253 NA
ATOM      4  C   UNL     1       2.208   0.567  -0.208  1.00  0.00     0.089 A 
ATOM      5  C   UNL     1       1.067   1.359  -0.144  1.00  0.00     0.035 A 
ATOM      6  C   UNL     1      -0.133   0.785   0.228  1.00  0.00    -0.038 A 
ATOM      7  C   UNL     1      -0.213  -0.574   0.532  1.00  0.00    -0.038 A 
ATOM      8  C   UNL     1       0.905  -1.383   0.470  1.00  0.00     0.035 A 
ATOM      9  C   UNL     1       2.126  -0.827   0.104  1.00  0.00     0.089 A 
ATOM     10  N   UNL     1       3.213  -1.620   0.048  1.00  0.00    -0.253 NA
ATOM     11  C   UNL     1      -1.645  -0.918   0.867  1.00  0.00     0.034 C 
ATOM     12  C   UNL     1      -2.429  -1.220  -0.432  1.00  0.00     0.089 C 
ATOM     13  N   UNL     1      -3.064  -0.045  -1.052  1.00  0.00    -0.316 NA
ATOM     14  C   UNL     1      -2.286   1.203  -0.975  1.00  0.00     0.089 C 
ATOM     15  C   UNL     1      -1.508   1.396   0.349  1.00  0.00     0.034 C 
ATOM     16  C   UNL     1      -2.085   0.452   1.425  1.00  0.00     0.019 C 
ATOM     17  H   UNL     1      -3.322  -0.246  -2.017  1.00  0.00     0.122 HD
ENDROOT
TORSDOF 0
