REMARK SMILES Cn1cnc([N+](=O)[O-])c1Sc1ncnc2[nH]cnc12
REMARK SMILES IDX 1 1 2 2 3 3 4 4 5 5 9 6 10 7 11 8 12 9 19 10 13 11 15 12
REMARK SMILES IDX 18 13 14 14 16 15 17 16 6 18 7 19 8 20
REMARK H PARENT 16 17
REMARK Flexibility Score: inf
ROOT
ATOM      1  C   UNL     1      -3.321  -1.760   0.363  1.00  0.00     0.154 C 
ATOM      2  N   UNL     1      -2.926  -0.371   0.362  1.00  0.00    -0.302 N 
ATOM      3  C   UNL     1      -3.639   0.636   0.958  1.00  0.00     0.348 A 
ATOM      4  N   UNL     1      -3.055   1.803   0.810  1.00  0.00    -0.024 NA
ATOM      5  C   UNL     1      -1.904   1.534   0.085  1.00  0.00     0.396 A 
ATOM      6  C   UNL     1      -1.798   0.184  -0.198  1.00  0.00     0.183 A 
ENDROOT
BRANCH   6   7
ATOM      7  S   UNL     1      -0.630  -0.797  -1.032  1.00  0.00    -0.041 SA
BRANCH   7   8
ATOM      8  C   UNL     1       0.863  -0.333  -0.200  1.00  0.00     0.134 A 
ATOM      9  N   UNL     1       0.832   0.310   0.999  1.00  0.00    -0.227 NA
ATOM     10  C   UNL     1       2.096  -0.650  -0.778  1.00  0.00     0.140 A 
ATOM     11  C   UNL     1       2.009   0.642   1.569  1.00  0.00     0.225 A 
ATOM     12  C   UNL     1       3.213  -0.246  -0.064  1.00  0.00     0.161 A 
ATOM     13  N   UNL     1       2.481  -1.300  -1.936  1.00  0.00    -0.232 NA
ATOM     14  N   UNL     1       3.252   0.400   1.109  1.00  0.00    -0.217 NA
ATOM     15  N   UNL     1       4.283  -0.642  -0.813  1.00  0.00    -0.329 N 
ATOM     16  C   UNL     1       3.797  -1.271  -1.926  1.00  0.00     0.199 A 
ATOM     17  H   UNL     1       5.251  -0.489  -0.574  1.00  0.00     0.169 HD
ENDBRANCH   7   8
ENDBRANCH   6   7
BRANCH   5  18
ATOM     18  N   UNL     1      -1.018   2.614  -0.282  1.00  0.00    -0.021 N 
ATOM     19  O   UNL     1      -0.985   3.603   0.465  1.00  0.00    -0.358 OA
ATOM     20  O   UNL     1      -0.360   2.483  -1.325  1.00  0.00    -0.358 OA
ENDBRANCH   5  18
TORSDOF 3
