REMARK SMILES NNc1nncc2ccccc12
REMARK SMILES IDX 2 1 1 3 3 6 4 7 12 8 5 9 7 10 11 11 6 12 8 13 10 14 9 15
REMARK H PARENT 2 2 1 4 1 5
REMARK Flexibility Score: inf
ROOT
ATOM      1  N   UNL     1      -2.128  -1.161  -0.385  1.00  0.00    -0.306 N 
ATOM      2  H   UNL     1      -1.683  -2.065  -0.203  1.00  0.00     0.183 HD
ENDROOT
BRANCH   1   3
ATOM      3  N   UNL     1      -3.513  -1.139  -0.057  1.00  0.00    -0.249 NA
ATOM      4  H   UNL     1      -3.619  -0.943   0.947  1.00  0.00     0.143 HD
ATOM      5  H   UNL     1      -3.937  -0.317  -0.501  1.00  0.00     0.143 HD
ENDBRANCH   1   3
BRANCH   1   6
ATOM      6  C   UNL     1      -1.309  -0.140   0.194  1.00  0.00     0.170 A 
ATOM      7  N   UNL     1      -1.880   0.780   1.015  1.00  0.00    -0.131 NA
ATOM      8  C   UNL     1       0.071  -0.091  -0.114  1.00  0.00     0.029 A 
ATOM      9  N   UNL     1      -1.132   1.758   1.598  1.00  0.00    -0.156 NA
ATOM     10  C   UNL     1       0.837   0.923   0.494  1.00  0.00     0.006 A 
ATOM     11  C   UNL     1       0.733  -0.981  -0.995  1.00  0.00     0.013 A 
ATOM     12  C   UNL     1       0.188   1.814   1.339  1.00  0.00     0.144 A 
ATOM     13  C   UNL     1       2.218   1.019   0.240  1.00  0.00     0.010 A 
ATOM     14  C   UNL     1       2.104  -0.876  -1.243  1.00  0.00     0.001 A 
ATOM     15  C   UNL     1       2.846   0.122  -0.623  1.00  0.00     0.001 A 
ENDBRANCH   1   6
TORSDOF 2
