REMARK SMILES COc1ccnc(CS(=O)c2nc3cc(-n4cccc4)ccc3[nH]2)c1C
REMARK SMILES IDX 8 1 7 2 3 3 25 4 4 5 26 6 5 7 6 8 2 9 1 10 9 11 10 12 11 13
REMARK SMILES IDX 12 14 24 15 13 16 23 17 14 19 22 20 15 21 21 22 16 23 17 24
REMARK SMILES IDX 20 25 18 26 19 27
REMARK H PARENT 24 18
REMARK Flexibility Score: inf
ROOT
ATOM      1  C   UNL     1      -1.706  -0.581   0.607  1.00  0.00     0.170 C 
ENDROOT
BRANCH   1   2
ATOM      2  C   UNL     1      -3.100  -0.976   1.025  1.00  0.00     0.060 A 
ATOM      3  C   UNL     1      -5.505  -0.867   0.962  1.00  0.00     0.125 A 
ATOM      4  C   UNL     1      -4.263  -0.444   0.447  1.00  0.00     0.014 A 
ATOM      5  C   UNL     1      -5.547  -1.802   1.991  1.00  0.00     0.067 A 
ATOM      6  C   UNL     1      -4.238   0.593  -0.643  1.00  0.00     0.050 C 
ATOM      7  C   UNL     1      -4.350  -2.278   2.486  1.00  0.00     0.115 A 
ATOM      8  N   UNL     1      -3.144  -1.888   2.035  1.00  0.00    -0.260 NA
BRANCH   3   9
ATOM      9  O   UNL     1      -6.616  -0.304   0.385  1.00  0.00    -0.496 OA
ATOM     10  C   UNL     1      -7.886  -0.652   0.921  1.00  0.00     0.278 C 
ENDBRANCH   3   9
ENDBRANCH   1   2
BRANCH   1  11
ATOM     11  S   UNL     1      -1.158   0.928   1.457  1.00  0.00     0.095 S 
ATOM     12  O   UNL     1      -1.872   2.121   0.882  1.00  0.00    -0.251 OA
BRANCH  11  13
ATOM     13  C   UNL     1       0.490   0.992   0.730  1.00  0.00     0.197 A 
ATOM     14  N   UNL     1       1.327  -0.017   0.641  1.00  0.00    -0.220 NA
ATOM     15  N   UNL     1       1.017   2.136   0.194  1.00  0.00    -0.331 N 
ATOM     16  C   UNL     1       2.442   0.498   0.025  1.00  0.00     0.092 A 
ATOM     17  C   UNL     1       2.273   1.846  -0.268  1.00  0.00     0.066 A 
ATOM     18  H   UNL     1       0.532   3.022   0.146  1.00  0.00     0.169 HD
ATOM     19  C   UNL     1       3.647  -0.137  -0.320  1.00  0.00     0.057 A 
ATOM     20  C   UNL     1       3.247   2.619  -0.895  1.00  0.00     0.030 A 
ATOM     21  C   UNL     1       4.660   0.608  -0.954  1.00  0.00     0.047 A 
ATOM     22  C   UNL     1       4.446   1.971  -1.231  1.00  0.00     0.029 A 
BRANCH  21  23
ATOM     23  N   UNL     1       5.895  -0.021  -1.313  1.00  0.00    -0.324 N 
ATOM     24  C   UNL     1       6.215  -1.361  -1.167  1.00  0.00     0.091 A 
ATOM     25  C   UNL     1       7.004   0.589  -1.875  1.00  0.00     0.091 A 
ATOM     26  C   UNL     1       7.495  -1.583  -1.626  1.00  0.00     0.020 A 
ATOM     27  C   UNL     1       7.995  -0.347  -2.074  1.00  0.00     0.020 A 
ENDBRANCH  21  23
ENDBRANCH  11  13
ENDBRANCH   1  11
TORSDOF 5
