REMARK SMILES CC(C)NCC(O)COc1cccc2[nH]ccc12
REMARK SMILES IDX 6 1 5 2 4 3 2 5 1 6 3 7 7 8 8 10 9 11 10 12 11 13 18 14
REMARK SMILES IDX 12 15 14 16 17 17 13 18 15 19 16 20
REMARK H PARENT 4 4 7 9 15 21
REMARK Flexibility Score: inf
ROOT
ATOM      1  C   UNL     1      -0.838  -0.433   1.902  1.00  0.00     0.165 C 
ENDROOT
BRANCH   1   2
ATOM      2  C   UNL     1      -2.271  -0.200   1.389  1.00  0.00     0.116 C 
BRANCH   2   3
ATOM      3  N   UNL     1      -2.398   0.994   0.546  1.00  0.00    -0.312 NA
ATOM      4  H   UNL     1      -1.924   0.848  -0.344  1.00  0.00     0.123 HD
BRANCH   3   5
ATOM      5  C   UNL     1      -3.796   1.368   0.290  1.00  0.00     0.047 C 
ATOM      6  C   UNL     1      -4.499   0.392  -0.656  1.00  0.00     0.024 C 
ATOM      7  C   UNL     1      -3.799   2.772  -0.316  1.00  0.00     0.024 C 
ENDBRANCH   3   5
ENDBRANCH   2   3
ENDBRANCH   1   2
BRANCH   1   8
ATOM      8  O   UNL     1      -0.853  -1.568   2.786  1.00  0.00    -0.388 OA
ATOM      9  H   UNL     1       0.083  -1.729   3.014  1.00  0.00     0.211 HD
ENDBRANCH   1   8
BRANCH   1  10
ATOM     10  C   UNL     1       0.167  -0.701   0.777  1.00  0.00     0.262 C 
BRANCH  10  11
ATOM     11  O   UNL     1       1.453  -0.922   1.390  1.00  0.00    -0.490 OA
BRANCH  11  12
ATOM     12  C   UNL     1       2.387  -1.201   0.414  1.00  0.00     0.128 A 
ATOM     13  C   UNL     1       2.733  -2.539   0.200  1.00  0.00     0.047 A 
ATOM     14  C   UNL     1       3.042  -0.179  -0.305  1.00  0.00     0.041 A 
ATOM     15  C   UNL     1       3.690  -2.873  -0.756  1.00  0.00     0.006 A 
ATOM     16  C   UNL     1       3.996  -0.548  -1.256  1.00  0.00     0.049 A 
ATOM     17  C   UNL     1       2.980   1.243  -0.310  1.00  0.00     0.032 A 
ATOM     18  C   UNL     1       4.335  -1.884  -1.508  1.00  0.00     0.027 A 
ATOM     19  N   UNL     1       4.477   0.613  -1.820  1.00  0.00    -0.361 N 
ATOM     20  C   UNL     1       3.869   1.702  -1.254  1.00  0.00     0.083 A 
ATOM     21  H   UNL     1       5.185   0.649  -2.540  1.00  0.00     0.166 HD
ENDBRANCH  11  12
ENDBRANCH  10  11
ENDBRANCH   1  10
TORSDOF 7
