REMARK SMILES NS(=O)(=O)c1cc(C2(O)NC(=O)c3ccccc32)ccc1Cl
REMARK SMILES IDX 5 1 6 2 7 3 19 4 20 5 21 6 22 7 2 8 3 9 4 10 1 11 8 14 10 15
REMARK SMILES IDX 18 16 11 17 13 19 17 20 12 21 14 22 16 23 15 24 9 25
REMARK H PARENT 1 12 1 13 10 18 9 26
REMARK Flexibility Score: inf
ROOT
ATOM      1  C   UNL     1       2.369   1.113   0.035  1.00  0.00     0.101 A 
ATOM      2  C   UNL     1       1.288   0.215   0.061  1.00  0.00     0.032 A 
ATOM      3  C   UNL     1       0.416   0.156   1.168  1.00  0.00     0.010 A 
ATOM      4  C   UNL     1       0.658   1.031   2.239  1.00  0.00     0.011 A 
ATOM      5  C   UNL     1       1.735   1.922   2.213  1.00  0.00     0.022 A 
ATOM      6  C   UNL     1       2.596   1.968   1.113  1.00  0.00     0.061 A 
ATOM      7  Cl  UNL     1       3.894   3.102   1.181  1.00  0.00    -0.083 Cl
ENDROOT
BRANCH   1   8
ATOM      8  S   UNL     1       3.445   1.166  -1.361  1.00  0.00     0.239 S 
ATOM      9  O   UNL     1       3.261   2.425  -2.044  1.00  0.00    -0.207 OA
ATOM     10  O   UNL     1       4.735   0.646  -0.975  1.00  0.00    -0.207 OA
BRANCH   8  11
ATOM     11  N   UNL     1       2.828   0.016  -2.428  1.00  0.00    -0.225 NA
ATOM     12  H   UNL     1       2.548   0.483  -3.293  1.00  0.00     0.137 HD
ATOM     13  H   UNL     1       3.532  -0.710  -2.576  1.00  0.00     0.137 HD
ENDBRANCH   8  11
ENDBRANCH   1   8
BRANCH   3  14
ATOM     14  C   UNL     1      -0.765  -0.803   1.185  1.00  0.00     0.192 C 
ATOM     15  N   UNL     1      -0.392  -2.137   0.819  1.00  0.00    -0.316 N 
ATOM     16  C   UNL     1      -1.842  -0.472   0.193  1.00  0.00     0.022 A 
ATOM     17  C   UNL     1      -1.026  -2.573  -0.323  1.00  0.00     0.254 C 
ATOM     18  H   UNL     1       0.419  -2.616   1.183  1.00  0.00     0.167 HD
ATOM     19  C   UNL     1      -1.986  -1.532  -0.704  1.00  0.00     0.048 A 
ATOM     20  C   UNL     1      -2.640   0.654   0.069  1.00  0.00     0.010 A 
ATOM     21  O   UNL     1      -0.821  -3.611  -0.917  1.00  0.00    -0.269 OA
ATOM     22  C   UNL     1      -2.892  -1.517  -1.746  1.00  0.00     0.014 A 
ATOM     23  C   UNL     1      -3.569   0.693  -0.976  1.00  0.00     0.001 A 
ATOM     24  C   UNL     1      -3.694  -0.382  -1.877  1.00  0.00     0.001 A 
BRANCH  14  25
ATOM     25  O   UNL     1      -1.332  -0.921   2.469  1.00  0.00    -0.363 OA
ATOM     26  H   UNL     1      -1.622  -1.847   2.509  1.00  0.00     0.214 HD
ENDBRANCH  14  25
ENDBRANCH   3  14
TORSDOF 4
