REMARK SMILES CN(C(=O)C(Cl)Cl)c1ccc(OC(=O)c2ccco2)cc1
REMARK SMILES IDX 8 1 9 2 10 3 11 4 20 5 21 6 2 7 1 8 3 9 4 10 5 11 6 12 7 13
REMARK SMILES IDX 12 14 13 15 14 16 15 17 16 18 19 19 17 20 18 21
REMARK H PARENT
REMARK Flexibility Score: inf
ROOT
ATOM      1  C   UNL     1      -2.021   0.486  -0.344  1.00  0.00     0.044 A 
ATOM      2  C   UNL     1      -1.130   0.770  -1.390  1.00  0.00     0.030 A 
ATOM      3  C   UNL     1       0.202   0.354  -1.327  1.00  0.00     0.049 A 
ATOM      4  C   UNL     1       0.651  -0.317  -0.194  1.00  0.00     0.131 A 
ATOM      5  C   UNL     1      -0.208  -0.602   0.862  1.00  0.00     0.049 A 
ATOM      6  C   UNL     1      -1.540  -0.186   0.790  1.00  0.00     0.030 A 
ENDROOT
BRANCH   1   7
ATOM      7  N   UNL     1      -3.372   0.933  -0.412  1.00  0.00    -0.313 N 
ATOM      8  C   UNL     1      -3.600   2.276  -0.943  1.00  0.00     0.153 C 
BRANCH   7   9
ATOM      9  C   UNL     1      -4.494   0.207   0.017  1.00  0.00     0.260 C 
ATOM     10  O   UNL     1      -5.581   0.772   0.198  1.00  0.00    -0.271 OA
BRANCH   9  11
ATOM     11  C   UNL     1      -4.372  -1.319   0.146  1.00  0.00     0.261 C 
ATOM     12  Cl  UNL     1      -5.555  -2.079  -0.956  1.00  0.00    -0.095 Cl
ATOM     13  Cl  UNL     1      -4.706  -1.799   1.825  1.00  0.00    -0.095 Cl
ENDBRANCH   9  11
ENDBRANCH   7   9
ENDBRANCH   1   7
BRANCH   4  14
ATOM     14  O   UNL     1       1.969  -0.769  -0.132  1.00  0.00    -0.421 OA
BRANCH  14  15
ATOM     15  C   UNL     1       2.873   0.203   0.290  1.00  0.00     0.379 C 
ATOM     16  O   UNL     1       2.592   1.359   0.588  1.00  0.00    -0.242 OA
BRANCH  15  17
ATOM     17  C   UNL     1       4.206  -0.354   0.326  1.00  0.00     0.211 A 
ATOM     18  C   UNL     1       5.414   0.222   0.679  1.00  0.00     0.058 A 
ATOM     19  O   UNL     1       4.420  -1.661  -0.030  1.00  0.00    -0.457 OA
ATOM     20  C   UNL     1       6.405  -0.777   0.532  1.00  0.00     0.043 A 
ATOM     21  C   UNL     1       5.749  -1.904   0.098  1.00  0.00     0.196 A 
ENDBRANCH  15  17
ENDBRANCH  14  15
ENDBRANCH   4  14
TORSDOF 6
