REMARK SMILES CCN(CC)C(=O)c1cccnc1
REMARK SMILES IDX 3 1 6 2 7 3 2 4 1 5 4 6 5 7 8 8 9 9 13 10 10 11 12 12 11 13
REMARK H PARENT
REMARK Flexibility Score: inf
ROOT
ATOM      1  N   UNL     1      -1.013   0.328  -0.026  1.00  0.00    -0.339 N 
ATOM      2  C   UNL     1       0.021   0.930   0.697  1.00  0.00     0.255 C 
ATOM      3  O   UNL     1      -0.119   1.954   1.362  1.00  0.00    -0.269 OA
ENDROOT
BRANCH   1   4
ATOM      4  C   UNL     1      -2.336   0.949   0.060  1.00  0.00     0.116 C 
ATOM      5  C   UNL     1      -2.501   2.106  -0.915  1.00  0.00     0.027 C 
ENDBRANCH   1   4
BRANCH   1   6
ATOM      6  C   UNL     1      -0.816  -0.693  -1.063  1.00  0.00     0.116 C 
ATOM      7  C   UNL     1      -1.397  -2.042  -0.668  1.00  0.00     0.027 C 
ENDBRANCH   1   6
BRANCH   2   8
ATOM      8  C   UNL     1       1.362   0.327   0.679  1.00  0.00     0.058 A 
ATOM      9  C   UNL     1       1.604  -0.952   1.178  1.00  0.00     0.017 A 
ATOM     10  C   UNL     1       2.432   1.074   0.211  1.00  0.00     0.124 A 
ATOM     11  C   UNL     1       2.904  -1.452   1.148  1.00  0.00     0.021 A 
ATOM     12  N   UNL     1       3.704   0.606   0.160  1.00  0.00    -0.264 NA
ATOM     13  C   UNL     1       3.908  -0.645   0.632  1.00  0.00     0.111 A 
ENDBRANCH   2   8
TORSDOF 3
