REMARK SMILES C[C@H]1CNC(=O)c2cnn3ccc(nc23)N[C@H](C)c2cc(F)ccc2O1
REMARK SMILES IDX 17 1 18 2 19 3 25 4 24 5 20 6 23 7 21 8 22 9 26 10 2 11 1 12
REMARK SMILES IDX 16 14 13 15 12 17 14 18 11 19 15 20 10 21 7 22 9 23 8 24
REMARK SMILES IDX 5 25 4 26 6 27 3 29
REMARK H PARENT 16 16 4 28
REMARK Flexibility Score: 70.00
ROOT
ATOM      1  C   UNL     1      -1.851   0.967   1.054  1.00  0.00     0.112 C 
ATOM      2  C   UNL     1      -1.012   0.678   2.294  1.00  0.00     0.036 C 
ENDROOT
BRANCH   1   3
ATOM      3  C   UNL     1      -2.476  -0.248   0.385  1.00  0.00     0.019 A 
ATOM      4  C   UNL     1      -1.869  -1.095  -0.560  1.00  0.00     0.125 A 
ATOM      5  C   UNL     1      -2.618  -2.092  -1.212  1.00  0.00     0.050 A 
ATOM      6  C   UNL     1      -3.820  -0.531   0.729  1.00  0.00     0.049 A 
ATOM      7  C   UNL     1      -3.943  -2.336  -0.867  1.00  0.00     0.043 A 
ATOM      8  C   UNL     1      -4.530  -1.559   0.114  1.00  0.00     0.123 A 
ATOM      9  F   UNL     1      -5.803  -1.781   0.463  1.00  0.00    -0.207 F 
BRANCH   4  10
ATOM     10  O   UNL     1      -0.581  -0.955  -1.002  1.00  0.00    -0.489 OA
BRANCH  10  11
ATOM     11  C   UNL     1       0.398  -1.690  -0.234  1.00  0.00     0.189 CG0
ATOM     12  C   UNL     1       0.206  -3.211  -0.282  1.00  0.00     0.055 C 
ATOM     13  G   UNL     1       1.792  -1.342  -0.803  1.00  0.00     0.000 G0
ENDBRANCH  10  11
ENDBRANCH   4  10
ENDBRANCH   1   3
BRANCH   1  14
ATOM     14  N   UNL     1      -1.295   1.921   0.110  1.00  0.00    -0.363 N 
ATOM     15  C   UNL     1       0.021   2.211  -0.145  1.00  0.00     0.130 C 
ATOM     16  H   UNL     1      -1.995   2.413  -0.431  1.00  0.00     0.162 HD
ATOM     17  C   UNL     1       0.304   3.477  -0.916  1.00  0.00     0.067 C 
ATOM     18  N   UNL     1       0.979   1.426   0.273  1.00  0.00    -0.211 NA
ATOM     19  C   UNL     1       1.589   3.797  -1.111  1.00  0.00     0.119 C 
ATOM     20  C   UNL     1       2.270   1.743  -0.048  1.00  0.00     0.170 A 
ATOM     21  N   UNL     1       2.593   2.946  -0.675  1.00  0.00    -0.222 N 
ATOM     22  C   UNL     1       3.456   1.043   0.073  1.00  0.00     0.104 A 
ATOM     23  N   UNL     1       3.931   3.108  -0.805  1.00  0.00    -0.174 NA
ATOM     24  C   UNL     1       4.440   1.965  -0.340  1.00  0.00     0.151 A 
BRANCH  22  25
ATOM     25  C   UNL     1       3.686  -0.297   0.560  1.00  0.00     0.256 C 
ATOM     26  N   UNL     1       2.827  -1.318   0.227  1.00  0.00    -0.348 N 
ATOM     27  O   UNL     1       4.682  -0.573   1.228  1.00  0.00    -0.269 OA
ATOM     28  H   UNL     1       3.137  -2.205   0.600  1.00  0.00     0.163 HD
BRANCH  26  29
ATOM     29  C   UNL     1       1.792  -1.342  -0.803  1.00  0.00     0.161 CG0
ATOM     30  G   UNL     1       0.398  -1.690  -0.234  1.00  0.00     0.000 G0
ENDBRANCH  26  29
ENDBRANCH  22  25
ENDBRANCH   1  14
TORSDOF 0
