REMARK SMILES C[C@@H](Nc1cc(F)cc(F)c1)c1cc(C(=O)N(C)C)cc2c(=O)cc(N3CCOCC3)oc12
REMARK SMILES IDX 1 1 2 2 3 3 4 5 5 6 11 7 6 8 9 9 7 10 8 11 10 12 12 13 13 14
REMARK SMILES IDX 33 15 14 16 21 17 32 18 20 19 22 20 25 21 24 22 23 23 15 24
REMARK SMILES IDX 16 25 17 26 18 27 19 28 26 29 27 30 31 31 28 32 30 33 29 34
REMARK H PARENT 3 4
REMARK Flexibility Score: inf
ROOT
ATOM      1  C   UNL     1      -1.697  -1.833   2.078  1.00  0.00     0.036 C 
ATOM      2  C   UNL     1      -1.107  -1.274   0.779  1.00  0.00     0.110 C 
ENDROOT
BRANCH   2   3
ATOM      3  N   UNL     1      -1.976  -1.618  -0.352  1.00  0.00    -0.378 N 
ATOM      4  H   UNL     1      -2.238  -0.814  -0.918  1.00  0.00     0.161 HD
BRANCH   3   5
ATOM      5  C   UNL     1      -1.781  -2.763  -1.125  1.00  0.00     0.040 A 
ATOM      6  C   UNL     1      -2.486  -2.877  -2.333  1.00  0.00     0.065 A 
ATOM      7  C   UNL     1      -1.027  -3.868  -0.716  1.00  0.00     0.065 A 
ATOM      8  C   UNL     1      -2.385  -4.022  -3.121  1.00  0.00     0.128 A 
ATOM      9  C   UNL     1      -0.936  -5.008  -1.518  1.00  0.00     0.128 A 
ATOM     10  F   UNL     1      -3.060  -4.087  -4.276  1.00  0.00    -0.207 F 
ATOM     11  C   UNL     1      -1.605  -5.095  -2.726  1.00  0.00     0.078 A 
ATOM     12  F   UNL     1      -0.188  -6.040  -1.104  1.00  0.00    -0.207 F 
ENDBRANCH   3   5
ENDBRANCH   2   3
BRANCH   2  13
ATOM     13  C   UNL     1      -0.960   0.243   0.850  1.00  0.00     0.018 A 
ATOM     14  C   UNL     1      -2.086   1.062   1.074  1.00  0.00     0.023 A 
ATOM     15  C   UNL     1       0.293   0.864   0.690  1.00  0.00     0.145 A 
ATOM     16  C   UNL     1      -1.964   2.456   1.133  1.00  0.00     0.041 A 
ATOM     17  C   UNL     1       0.406   2.252   0.773  1.00  0.00     0.066 A 
ATOM     18  O   UNL     1       1.383   0.063   0.458  1.00  0.00    -0.440 OA
ATOM     19  C   UNL     1      -0.711   3.056   1.008  1.00  0.00     0.030 A 
ATOM     20  C   UNL     1       1.729   2.860   0.602  1.00  0.00     0.194 C 
ATOM     21  C   UNL     1       2.652   0.617   0.311  1.00  0.00     0.200 C 
ATOM     22  C   UNL     1       2.853   1.942   0.374  1.00  0.00     0.119 C 
ATOM     23  O   UNL     1       1.897   4.072   0.636  1.00  0.00    -0.289 OA
BRANCH  16  24
ATOM     24  C   UNL     1      -3.172   3.267   1.413  1.00  0.00     0.253 C 
ATOM     25  O   UNL     1      -3.882   2.906   2.349  1.00  0.00    -0.269 OA
ATOM     26  N   UNL     1      -3.439   4.390   0.632  1.00  0.00    -0.345 N 
ATOM     27  C   UNL     1      -4.528   5.262   1.038  1.00  0.00     0.146 C 
ATOM     28  C   UNL     1      -2.889   4.632  -0.695  1.00  0.00     0.146 C 
ENDBRANCH  16  24
BRANCH  21  29
ATOM     29  N   UNL     1       3.668  -0.316   0.091  1.00  0.00    -0.338 N 
ATOM     30  C   UNL     1       3.375  -1.739  -0.197  1.00  0.00     0.148 C 
ATOM     31  C   UNL     1       5.111   0.004   0.128  1.00  0.00     0.148 C 
ATOM     32  C   UNL     1       4.488  -2.356  -1.058  1.00  0.00     0.181 C 
ATOM     33  C   UNL     1       5.939  -1.241   0.484  1.00  0.00     0.181 C 
ATOM     34  O   UNL     1       5.783  -2.322  -0.444  1.00  0.00    -0.378 OA
ENDBRANCH  21  29
ENDBRANCH   2  13
TORSDOF 5
