REMARK SMILES O=c1[nH]c(=O)n(C2CCCO2)cc1F
REMARK SMILES IDX 7 1 8 2 9 3 10 4 11 5 6 6 1 7 2 8 3 9 13 10 4 11 12 13 14 14
REMARK SMILES IDX 5 15
REMARK H PARENT 3 12
REMARK Flexibility Score: inf
ROOT
ATOM      1  C   UNL     1      -0.689   0.253   0.627  1.00  0.00     0.223 C 
ATOM      2  C   UNL     1      -1.622   0.541  -0.543  1.00  0.00     0.058 C 
ATOM      3  C   UNL     1      -2.896  -0.125  -0.090  1.00  0.00     0.033 C 
ATOM      4  C   UNL     1      -2.370  -1.362   0.604  1.00  0.00     0.163 C 
ATOM      5  O   UNL     1      -1.099  -1.017   1.170  1.00  0.00    -0.358 OA
ENDROOT
BRANCH   1   6
ATOM      6  N   UNL     1       0.716   0.238   0.246  1.00  0.00    -0.271 N 
ATOM      7  O   UNL     1       4.559   0.354  -0.927  1.00  0.00    -0.266 OA
ATOM      8  C   UNL     1       3.390   0.304  -0.563  1.00  0.00     0.289 C 
ATOM      9  N   UNL     1       2.668   1.428  -0.261  1.00  0.00    -0.271 N 
ATOM     10  C   UNL     1       2.649  -0.964  -0.427  1.00  0.00     0.204 C 
ATOM     11  C   UNL     1       1.348   1.471   0.115  1.00  0.00     0.330 C 
ATOM     12  H   UNL     1       3.139   2.314  -0.360  1.00  0.00     0.175 HD
ATOM     13  C   UNL     1       1.373  -0.946  -0.042  1.00  0.00     0.138 C 
ATOM     14  F   UNL     1       3.302  -2.105  -0.712  1.00  0.00    -0.199 F 
ATOM     15  O   UNL     1       0.793   2.551   0.303  1.00  0.00    -0.248 OA
ENDBRANCH   1   6
TORSDOF 1
