REMARK SMILES Cc1ccc(NC(=O)C2(c3ccc4c(c3)OC(F)(F)O4)CC2)nc1-c1cccc(C(=O)O)c1
REMARK SMILES IDX 1 1 2 2 3 3 4 4 5 5 23 6 24 7 25 8 26 9 33 10 27 11 29 12
REMARK SMILES IDX 28 13 30 14 31 15 32 16 6 18 7 19 8 21 9 22 21 23 22 24
REMARK SMILES IDX 10 25 11 26 15 27 12 28 14 29 13 30 16 31 20 32 17 33 18 34
REMARK SMILES IDX 19 35
REMARK H PARENT 32 17 6 20
REMARK Flexibility Score: inf
ROOT
ATOM      1  C   UNL     1       4.075   2.479   2.489  1.00  0.00     0.047 C 
ATOM      2  C   UNL     1       2.867   1.844   1.866  1.00  0.00    -0.025 A 
ATOM      3  C   UNL     1       1.610   2.035   2.448  1.00  0.00     0.009 A 
ATOM      4  C   UNL     1       0.481   1.442   1.889  1.00  0.00     0.047 A 
ATOM      5  C   UNL     1       0.632   0.668   0.752  1.00  0.00     0.133 A 
ATOM      6  N   UNL     1       1.828   0.478   0.161  1.00  0.00    -0.230 NA
ATOM      7  C   UNL     1       2.927   1.069   0.702  1.00  0.00     0.076 A 
ENDROOT
BRANCH   7   8
ATOM      8  C   UNL     1       4.166   0.804  -0.044  1.00  0.00     0.001 A 
ATOM      9  C   UNL     1       4.896   1.843  -0.646  1.00  0.00     0.010 A 
ATOM     10  C   UNL     1       4.634  -0.512  -0.198  1.00  0.00     0.026 A 
ATOM     11  C   UNL     1       6.069   1.580  -1.360  1.00  0.00     0.002 A 
ATOM     12  C   UNL     1       5.808  -0.783  -0.913  1.00  0.00     0.060 A 
ATOM     13  C   UNL     1       6.527   0.270  -1.491  1.00  0.00     0.016 A 
BRANCH  12  14
ATOM     14  C   UNL     1       6.248  -2.194  -1.033  1.00  0.00     0.335 C 
ATOM     15  O   UNL     1       5.682  -3.162  -0.558  1.00  0.00    -0.246 OA
BRANCH  14  16
ATOM     16  O   UNL     1       7.382  -2.329  -1.743  1.00  0.00    -0.478 OA
ATOM     17  H   UNL     1       7.546  -3.296  -1.737  1.00  0.00     0.297 HD
ENDBRANCH  14  16
ENDBRANCH  12  14
ENDBRANCH   7   8
BRANCH   5  18
ATOM     18  N   UNL     1      -0.408   0.010   0.097  1.00  0.00    -0.310 N 
ATOM     19  C   UNL     1      -1.744  -0.018   0.420  1.00  0.00     0.236 C 
ATOM     20  H   UNL     1      -0.073  -0.498  -0.707  1.00  0.00     0.171 HD
ATOM     21  O   UNL     1      -2.250   0.560   1.375  1.00  0.00    -0.274 OA
BRANCH  19  22
ATOM     22  C   UNL     1      -2.637  -0.847  -0.508  1.00  0.00     0.075 C 
ATOM     23  C   UNL     1      -2.296  -0.932  -2.001  1.00  0.00     0.023 C 
ATOM     24  C   UNL     1      -2.077  -2.131  -1.132  1.00  0.00     0.023 C 
BRANCH  22  25
ATOM     25  C   UNL     1      -4.134  -0.862  -0.153  1.00  0.00    -0.028 A 
ATOM     26  C   UNL     1      -4.663  -1.833   0.738  1.00  0.00     0.009 A 
ATOM     27  C   UNL     1      -5.017   0.099  -0.682  1.00  0.00     0.055 A 
ATOM     28  C   UNL     1      -6.019  -1.863   1.083  1.00  0.00     0.051 A 
ATOM     29  C   UNL     1      -6.350   0.051  -0.328  1.00  0.00     0.173 A 
ATOM     30  C   UNL     1      -6.838  -0.905   0.530  1.00  0.00     0.172 A 
ATOM     31  O   UNL     1      -7.315   0.906  -0.760  1.00  0.00    -0.395 OA
ATOM     32  O   UNL     1      -8.173  -0.778   0.751  1.00  0.00    -0.395 OA
ATOM     33  C   UNL     1      -8.450   0.366  -0.069  1.00  0.00     0.586 C 
ATOM     34  F   UNL     1      -8.984   1.338   0.711  1.00  0.00    -0.125 F 
ATOM     35  F   UNL     1      -9.387   0.019  -0.987  1.00  0.00    -0.125 F 
ENDBRANCH  22  25
ENDBRANCH  19  22
ENDBRANCH   5  18
TORSDOF 6
