REMARK SMILES C=CC(=O)N1C[C@H](Nc2ncnc3[nH]ccc23)CC[C@@H]1C
REMARK SMILES IDX 5 1 6 2 7 3 18 4 19 5 20 6 21 7 3 8 4 9 2 10 1 11 8 12 9 14
REMARK SMILES IDX 10 15 17 16 11 17 13 18 16 19 12 20 14 21 15 22
REMARK H PARENT 8 13 14 23
REMARK Flexibility Score: inf
ROOT
ATOM      1  N   UNL     1      -2.365   0.348   0.171  1.00  0.00    -0.334 N 
ATOM      2  C   UNL     1      -0.954   0.764   0.133  1.00  0.00     0.144 C 
ATOM      3  C   UNL     1      -0.093  -0.200   0.978  1.00  0.00     0.100 C 
ATOM      4  C   UNL     1      -0.340  -1.681   0.639  1.00  0.00     0.029 C 
ATOM      5  C   UNL     1      -1.358  -1.854  -0.489  1.00  0.00     0.027 C 
ATOM      6  C   UNL     1      -2.642  -1.043  -0.231  1.00  0.00     0.082 C 
ATOM      7  C   UNL     1      -3.530  -1.086  -1.479  1.00  0.00     0.031 C 
ENDROOT
BRANCH   1   8
ATOM      8  C   UNL     1      -3.390   1.067   0.771  1.00  0.00     0.246 C 
ATOM      9  O   UNL     1      -4.473   0.568   1.069  1.00  0.00    -0.270 OA
BRANCH   8  10
ATOM     10  C   UNL     1      -3.145   2.511   1.028  1.00  0.00     0.063 C 
ATOM     11  C   UNL     1      -3.804   3.146   2.005  1.00  0.00     0.014 C 
ENDBRANCH   8  10
ENDBRANCH   1   8
BRANCH   3  12
ATOM     12  N   UNL     1       1.328   0.156   1.000  1.00  0.00    -0.365 N 
ATOM     13  H   UNL     1       1.816  -0.126   1.844  1.00  0.00     0.162 HD
BRANCH  12  14
ATOM     14  C   UNL     1       2.124   0.017  -0.130  1.00  0.00     0.139 A 
ATOM     15  N   UNL     1       1.572  -0.090  -1.361  1.00  0.00    -0.219 NA
ATOM     16  C   UNL     1       3.530  -0.015  -0.042  1.00  0.00     0.061 A 
ATOM     17  C   UNL     1       2.379  -0.227  -2.433  1.00  0.00     0.226 A 
ATOM     18  C   UNL     1       4.232  -0.163  -1.228  1.00  0.00     0.142 A 
ATOM     19  C   UNL     1       4.504   0.071   0.996  1.00  0.00     0.033 A 
ATOM     20  N   UNL     1       3.720  -0.278  -2.461  1.00  0.00    -0.218 NA
ATOM     21  N   UNL     1       5.568  -0.174  -0.939  1.00  0.00    -0.346 N 
ATOM     22  C   UNL     1       5.751  -0.032   0.414  1.00  0.00     0.085 A 
ATOM     23  H   UNL     1       6.293  -0.269  -1.636  1.00  0.00     0.167 HD
ENDBRANCH  12  14
ENDBRANCH   3  12
TORSDOF 4
