REMARK SMILES COc1cc([C@@H]2c3cc4c(cc3[C@H](O)[C@H]3COC(=O)[C@H]23)OCO4)cc(OC)c1OC
REMARK SMILES IDX 6 1 7 2 8 3 9 4 10 5 11 6 12 7 13 8 15 9 16 10 17 11 18 12
REMARK SMILES IDX 19 13 20 14 21 15 22 16 23 17 5 18 3 19 4 20 28 21 25 22
REMARK SMILES IDX 24 23 2 24 1 25 29 26 30 27 26 28 27 29 14 30
REMARK H PARENT 14 31
REMARK Flexibility Score: inf
ROOT
ATOM      1  C   UNL     1       0.709  -0.673   1.121  1.00  0.00     0.065 C 
ATOM      2  C   UNL     1       1.923   0.180   0.713  1.00  0.00    -0.030 A 
ATOM      3  C   UNL     1       2.096   1.434   1.330  1.00  0.00     0.055 A 
ATOM      4  C   UNL     1       3.168   2.209   0.946  1.00  0.00     0.166 A 
ATOM      5  C   UNL     1       4.059   1.792  -0.011  1.00  0.00     0.166 A 
ATOM      6  C   UNL     1       3.931   0.574  -0.642  1.00  0.00     0.057 A 
ATOM      7  C   UNL     1       2.847  -0.256  -0.294  1.00  0.00    -0.011 A 
ATOM      8  C   UNL     1       2.731  -1.623  -0.963  1.00  0.00     0.152 C 
ATOM      9  C   UNL     1       1.372  -2.248  -0.707  1.00  0.00     0.075 C 
ATOM     10  C   UNL     1       1.246  -3.734  -0.918  1.00  0.00     0.240 C 
ATOM     11  O   UNL     1       0.114  -4.101  -0.114  1.00  0.00    -0.465 OA
ATOM     12  C   UNL     1      -0.053  -3.173   0.886  1.00  0.00     0.310 C 
ATOM     13  O   UNL     1      -0.882  -3.265   1.775  1.00  0.00    -0.252 OA
ATOM     14  C   UNL     1       1.010  -2.125   0.756  1.00  0.00     0.120 C 
ATOM     15  O   UNL     1       5.041   2.704  -0.240  1.00  0.00    -0.454 OA
ATOM     16  C   UNL     1       4.651   3.755   0.668  1.00  0.00     0.468 C 
ATOM     17  O   UNL     1       3.473   3.439   1.440  1.00  0.00    -0.454 OA
ENDROOT
BRANCH   1  18
ATOM     18  C   UNL     1      -0.619  -0.134   0.586  1.00  0.00    -0.032 A 
ATOM     19  C   UNL     1      -1.962   1.015  -1.083  1.00  0.00     0.164 A 
ATOM     20  C   UNL     1      -0.725   0.552  -0.634  1.00  0.00     0.055 A 
ATOM     21  C   UNL     1      -3.109   0.842  -0.303  1.00  0.00     0.203 A 
ATOM     22  C   UNL     1      -3.037   0.128   0.897  1.00  0.00     0.164 A 
ATOM     23  C   UNL     1      -1.792  -0.334   1.342  1.00  0.00     0.055 A 
BRANCH  19  24
ATOM     24  O   UNL     1      -1.993   1.702  -2.270  1.00  0.00    -0.493 OA
ATOM     25  C   UNL     1      -2.497   0.861  -3.309  1.00  0.00     0.278 C 
ENDBRANCH  19  24
BRANCH  21  26
ATOM     26  O   UNL     1      -4.319   1.317  -0.752  1.00  0.00    -0.490 OA
ATOM     27  C   UNL     1      -4.520   2.641  -0.260  1.00  0.00     0.278 C 
ENDBRANCH  21  26
BRANCH  22  28
ATOM     28  O   UNL     1      -4.204  -0.031   1.599  1.00  0.00    -0.493 OA
ATOM     29  C   UNL     1      -4.283  -1.203   2.403  1.00  0.00     0.278 C 
ENDBRANCH  22  28
ENDBRANCH   1  18
BRANCH   8  30
ATOM     30  O   UNL     1       2.915  -1.483  -2.366  1.00  0.00    -0.388 OA
ATOM     31  H   UNL     1       3.134  -2.357  -2.733  1.00  0.00     0.211 HD
ENDBRANCH   8  30
TORSDOF 5
