REMARK SMILES Cc1nc(=O)c2cc(CN(C)c3ccc(C(=O)N[C@@H](CCC(=O)O)C(=O)O)s3)ccc2[nH]1
REMARK SMILES IDX 16 1 17 2 18 3 15 5 12 6 13 7 28 8 14 9 10 10 11 11 9 12
REMARK SMILES IDX 8 13 1 14 2 15 3 16 32 17 4 18 31 19 5 21 6 22 30 23 7 24
REMARK SMILES IDX 29 25 19 26 20 27 21 28 22 29 23 30 24 31 25 33 26 34 27 35
REMARK H PARENT 18 4 32 20 24 32 27 36
REMARK Flexibility Score: inf
ROOT
ATOM      1  C   UNL     1      -3.378  -0.150   0.958  1.00  0.00     0.262 C 
ATOM      2  O   UNL     1      -3.418   0.559   1.963  1.00  0.00    -0.268 OA
ATOM      3  N   UNL     1      -4.489  -0.278   0.150  1.00  0.00    -0.338 N 
ATOM      4  H   UNL     1      -4.496  -0.966  -0.595  1.00  0.00     0.164 HD
ENDROOT
BRANCH   1   5
ATOM      5  C   UNL     1      -2.207  -0.903   0.528  1.00  0.00     0.094 A 
ATOM      6  C   UNL     1       0.070  -1.973   0.495  1.00  0.00     0.092 A 
ATOM      7  C   UNL     1      -0.669  -2.196  -0.657  1.00  0.00     0.039 A 
ATOM      8  S   UNL     1      -0.865  -1.013   1.582  1.00  0.00    -0.113 S 
ATOM      9  C   UNL     1      -1.959  -1.585  -0.646  1.00  0.00     0.028 A 
BRANCH   6  10
ATOM     10  N   UNL     1       1.332  -2.445   0.773  1.00  0.00    -0.362 N 
ATOM     11  C   UNL     1       2.004  -3.335  -0.171  1.00  0.00     0.145 C 
BRANCH  10  12
ATOM     12  C   UNL     1       2.169  -1.885   1.839  1.00  0.00     0.152 C 
BRANCH  12  13
ATOM     13  C   UNL     1       3.159  -0.872   1.296  1.00  0.00    -0.028 A 
ATOM     14  C   UNL     1       8.200   2.517  -0.969  1.00  0.00     0.087 C 
ATOM     15  C   UNL     1       7.236   1.504  -0.399  1.00  0.00     0.107 C 
ATOM     16  N   UNL     1       7.703   0.333  -0.105  1.00  0.00    -0.196 NA
ATOM     17  N   UNL     1       5.933   1.903  -0.247  1.00  0.00    -0.343 N 
ATOM     18  C   UNL     1       6.845  -0.618   0.407  1.00  0.00     0.280 C 
ATOM     19  C   UNL     1       4.994   1.005   0.255  1.00  0.00     0.052 A 
ATOM     20  H   UNL     1       5.632   2.823  -0.533  1.00  0.00     0.168 HD
ATOM     21  O   UNL     1       7.221  -1.749   0.702  1.00  0.00    -0.267 OA
ATOM     22  C   UNL     1       5.411  -0.281   0.608  1.00  0.00     0.066 A 
ATOM     23  C   UNL     1       3.654   1.353   0.427  1.00  0.00     0.027 A 
ATOM     24  C   UNL     1       4.507  -1.218   1.124  1.00  0.00     0.021 A 
ATOM     25  C   UNL     1       2.745   0.421   0.940  1.00  0.00     0.008 A 
ENDBRANCH  12  13
ENDBRANCH  10  12
ENDBRANCH   6  10
ENDBRANCH   1   5
BRANCH   3  26
ATOM     26  C   UNL     1      -5.771   0.339   0.485  1.00  0.00     0.192 C 
BRANCH  26  27
ATOM     27  C   UNL     1      -5.793   1.853   0.214  1.00  0.00     0.049 C 
BRANCH  27  28
ATOM     28  C   UNL     1      -5.303   2.283  -1.174  1.00  0.00     0.125 C 
BRANCH  28  29
ATOM     29  C   UNL     1      -6.267   1.940  -2.276  1.00  0.00     0.303 C 
ATOM     30  O   UNL     1      -7.478   1.847  -2.183  1.00  0.00    -0.252 OA
BRANCH  29  31
ATOM     31  O   UNL     1      -5.648   1.755  -3.459  1.00  0.00    -0.481 OA
ATOM     32  H   UNL     1      -6.375   1.544  -4.082  1.00  0.00     0.296 HD
ENDBRANCH  29  31
ENDBRANCH  28  29
ENDBRANCH  27  28
ENDBRANCH  26  27
BRANCH  26  33
ATOM     33  C   UNL     1      -6.869  -0.408  -0.267  1.00  0.00     0.326 C 
ATOM     34  O   UNL     1      -6.689  -1.172  -1.206  1.00  0.00    -0.250 OA
BRANCH  33  35
ATOM     35  O   UNL     1      -8.106  -0.144   0.193  1.00  0.00    -0.480 OA
ATOM     36  H   UNL     1      -8.709  -0.597  -0.434  1.00  0.00     0.296 HD
ENDBRANCH  33  35
ENDBRANCH  26  33
ENDBRANCH   3  26
TORSDOF 11
