REMARK SMILES CC(C)NCC(O)COc1ccc(CC(N)=O)cc1
REMARK SMILES IDX 8 1 6 2 5 3 4 4 2 6 1 7 3 8 7 9 9 11 10 12 11 13 19 14 12 15
REMARK SMILES IDX 18 16 13 17 14 18 15 19 16 20 17 21
REMARK H PARENT 4 5 7 10 16 22 16 23
REMARK Flexibility Score: inf
ROOT
ATOM      1  C   UNL     1      -0.592   0.681   0.325  1.00  0.00     0.262 C 
ENDROOT
BRANCH   1   2
ATOM      2  C   UNL     1      -1.672   1.666   0.794  1.00  0.00     0.165 C 
BRANCH   2   3
ATOM      3  C   UNL     1      -3.065   1.312   0.244  1.00  0.00     0.116 C 
BRANCH   3   4
ATOM      4  N   UNL     1      -3.544   0.020   0.747  1.00  0.00    -0.312 NA
ATOM      5  H   UNL     1      -3.643   0.083   1.762  1.00  0.00     0.123 HD
BRANCH   4   6
ATOM      6  C   UNL     1      -4.824  -0.436   0.184  1.00  0.00     0.047 C 
ATOM      7  C   UNL     1      -4.743  -0.716  -1.318  1.00  0.00     0.024 C 
ATOM      8  C   UNL     1      -5.992   0.497   0.511  1.00  0.00     0.024 C 
ENDBRANCH   4   6
ENDBRANCH   3   4
ENDBRANCH   2   3
BRANCH   2   9
ATOM      9  O   UNL     1      -1.328   2.990   0.353  1.00  0.00    -0.388 OA
ATOM     10  H   UNL     1      -0.386   3.105   0.580  1.00  0.00     0.211 HD
ENDBRANCH   2   9
ENDBRANCH   1   2
BRANCH   1  11
ATOM     11  O   UNL     1       0.653   1.108   0.901  1.00  0.00    -0.491 OA
BRANCH  11  12
ATOM     12  C   UNL     1       1.755   0.346   0.626  1.00  0.00     0.119 A 
ATOM     13  C   UNL     1       2.930   0.772   1.249  1.00  0.00     0.047 A 
ATOM     14  C   UNL     1       1.792  -0.778  -0.199  1.00  0.00     0.047 A 
ATOM     15  C   UNL     1       4.131   0.087   1.055  1.00  0.00     0.008 A 
ATOM     16  C   UNL     1       2.993  -1.467  -0.396  1.00  0.00     0.008 A 
ATOM     17  C   UNL     1       4.174  -1.040   0.227  1.00  0.00    -0.038 A 
BRANCH  17  18
ATOM     18  C   UNL     1       5.470  -1.781  -0.003  1.00  0.00     0.135 C 
BRANCH  18  19
ATOM     19  C   UNL     1       5.996  -1.669  -1.421  1.00  0.00     0.221 C 
ATOM     20  N   UNL     1       6.122  -0.404  -1.923  1.00  0.00    -0.369 N 
ATOM     21  O   UNL     1       6.355  -2.639  -2.082  1.00  0.00    -0.275 OA
ATOM     22  H   UNL     1       5.554   0.347  -1.551  1.00  0.00     0.159 HD
ATOM     23  H   UNL     1       6.380  -0.343  -2.899  1.00  0.00     0.159 HD
ENDBRANCH  18  19
ENDBRANCH  17  18
ENDBRANCH  11  12
ENDBRANCH   1  11
TORSDOF 9
