REMARK SMILES CCOC(=O)[C@H](CCc1ccccc1)N[C@@H](C)C(=O)N1CC2(C[C@H]1C(=O)O)SCCS2
REMARK SMILES IDX 16 1 17 2 15 3 6 5 4 6 5 7 3 8 2 9 1 10 7 11 8 12 9 13 10 14
REMARK SMILES IDX 14 15 11 16 13 17 12 18 18 19 19 20 20 21 21 22 24 23 22 24
REMARK SMILES IDX 23 25 28 26 31 27 29 28 30 29 25 30 26 31 27 32
REMARK H PARENT 15 4 27 33
REMARK Flexibility Score: inf
ROOT
ATOM      1  C   UNL     1       0.409  -0.518  -1.289  1.00  0.00     0.141 C 
ATOM      2  C   UNL     1       0.569  -2.028  -1.452  1.00  0.00     0.035 C 
ENDROOT
BRANCH   1   3
ATOM      3  N   UNL     1      -0.698  -0.067  -2.161  1.00  0.00    -0.293 NA
ATOM      4  H   UNL     1      -0.335   0.666  -2.781  1.00  0.00     0.124 HD
BRANCH   3   5
ATOM      5  C   UNL     1      -1.932   0.402  -1.487  1.00  0.00     0.165 C 
BRANCH   5   6
ATOM      6  C   UNL     1      -1.735   1.758  -0.782  1.00  0.00     0.323 C 
ATOM      7  O   UNL     1      -0.881   2.013   0.060  1.00  0.00    -0.250 OA
BRANCH   6   8
ATOM      8  O   UNL     1      -2.697   2.636  -1.200  1.00  0.00    -0.465 OA
BRANCH   8   9
ATOM      9  C   UNL     1      -2.650   3.951  -0.626  1.00  0.00     0.229 C 
ATOM     10  C   UNL     1      -3.351   3.965   0.720  1.00  0.00     0.049 C 
ENDBRANCH   8   9
ENDBRANCH   6   8
ENDBRANCH   5   6
BRANCH   5  11
ATOM     11  C   UNL     1      -2.537  -0.631  -0.522  1.00  0.00     0.036 C 
BRANCH  11  12
ATOM     12  C   UNL     1      -3.932  -0.224  -0.033  1.00  0.00     0.038 C 
BRANCH  12  13
ATOM     13  C   UNL     1      -4.528  -1.272   0.873  1.00  0.00    -0.048 A 
ATOM     14  C   UNL     1      -4.207  -1.294   2.237  1.00  0.00     0.004 A 
ATOM     15  C   UNL     1      -5.388  -2.251   0.361  1.00  0.00     0.004 A 
ATOM     16  C   UNL     1      -4.745  -2.272   3.075  1.00  0.00     0.000 A 
ATOM     17  C   UNL     1      -5.926  -3.228   1.201  1.00  0.00     0.000 A 
ATOM     18  C   UNL     1      -5.605  -3.238   2.557  1.00  0.00     0.000 A 
ENDBRANCH  12  13
ENDBRANCH  11  12
ENDBRANCH   5  11
ENDBRANCH   3   5
ENDBRANCH   1   3
BRANCH   1  19
ATOM     19  C   UNL     1       1.732   0.170  -1.734  1.00  0.00     0.240 C 
ATOM     20  O   UNL     1       1.850   0.631  -2.874  1.00  0.00    -0.273 OA
BRANCH  19  21
ATOM     21  N   UNL     1       2.770   0.236  -0.828  1.00  0.00    -0.325 N 
ATOM     22  C   UNL     1       4.098   0.677  -1.225  1.00  0.00     0.149 C 
ATOM     23  C   UNL     1       2.728  -0.075   0.611  1.00  0.00     0.197 C 
ATOM     24  C   UNL     1       5.025   0.048  -0.174  1.00  0.00     0.081 C 
ATOM     25  C   UNL     1       4.174   0.108   1.101  1.00  0.00     0.068 C 
ATOM     26  S   UNL     1       5.395  -1.714  -0.596  1.00  0.00    -0.141 SA
ATOM     27  S   UNL     1       6.598   0.951   0.003  1.00  0.00    -0.141 SA
ATOM     28  C   UNL     1       7.204  -1.587  -0.579  1.00  0.00     0.082 C 
ATOM     29  C   UNL     1       7.590  -0.184  -0.997  1.00  0.00     0.082 C 
BRANCH  23  30
ATOM     30  C   UNL     1       1.825   0.885   1.388  1.00  0.00     0.326 C 
ATOM     31  O   UNL     1       1.335   0.657   2.482  1.00  0.00    -0.250 OA
BRANCH  30  32
ATOM     32  O   UNL     1       1.607   2.046   0.740  1.00  0.00    -0.480 OA
ATOM     33  H   UNL     1       0.736   2.383   1.057  1.00  0.00     0.296 HD
ENDBRANCH  30  32
ENDBRANCH  23  30
ENDBRANCH  19  21
ENDBRANCH   1  19
TORSDOF 12
