REMARK SMILES Oc1nc(O)c2cn[nH]c2n1
REMARK SMILES IDX 2 1 3 2 4 3 6 4 7 5 8 6 9 7 10 8 11 9 1 11 5 13
REMARK H PARENT 9 10 1 12 5 14
REMARK Flexibility Score: inf
ROOT
ATOM      1  C   UNL     1       1.724  -0.298   0.537  1.00  0.00     0.319 A 
ATOM      2  N   UNL     1       1.540   1.002   0.261  1.00  0.00    -0.159 NA
ATOM      3  C   UNL     1       0.313   1.350  -0.145  1.00  0.00     0.228 A 
ATOM      4  C   UNL     1      -0.696   0.412  -0.267  1.00  0.00     0.101 A 
ATOM      5  C   UNL     1      -2.051   0.340  -0.636  1.00  0.00     0.151 A 
ATOM      6  N   UNL     1      -2.539  -0.906  -0.559  1.00  0.00    -0.181 NA
ATOM      7  N   UNL     1      -1.480  -1.630  -0.135  1.00  0.00    -0.260 N 
ATOM      8  C   UNL     1      -0.351  -0.887   0.054  1.00  0.00     0.166 A 
ATOM      9  N   UNL     1       0.854  -1.319   0.468  1.00  0.00    -0.175 NA
ATOM     10  H   UNL     1      -1.590  -2.627   0.006  1.00  0.00     0.192 HD
ENDROOT
BRANCH   1  11
ATOM     11  O   UNL     1       2.969  -0.658   0.950  1.00  0.00    -0.479 OA
ATOM     12  H   UNL     1       2.827  -1.610   1.075  1.00  0.00     0.297 HD
ENDBRANCH   1  11
BRANCH   3  13
ATOM     13  O   UNL     1       0.144   2.675  -0.421  1.00  0.00    -0.493 OA
ATOM     14  H   UNL     1       1.038   3.013  -0.228  1.00  0.00     0.295 HD
ENDBRANCH   3  13
TORSDOF 2
