REMARK SMILES CC(C)NC(=O)COc1cccc(-c2nc(Nc3ccc4[nH]ncc4c3)c3ccccc3n2)c1
REMARK SMILES IDX 9 1 10 2 11 3 12 4 13 5 34 6 8 7 7 8 5 9 4 10 6 12 2 13 1 14
REMARK SMILES IDX 3 15 14 16 15 17 33 18 16 19 32 20 27 21 31 22 28 23 30 24
REMARK SMILES IDX 29 25 17 26 18 28 19 29 26 30 20 31 25 32 21 33 24 34 22 35
REMARK SMILES IDX 23 36
REMARK H PARENT 4 11 17 27 22 37
REMARK Flexibility Score: inf
ROOT
ATOM      1  C   UNL     1       2.324   0.563  -0.373  1.00  0.00     0.120 A 
ATOM      2  C   UNL     1       2.029   1.769  -1.009  1.00  0.00     0.046 A 
ATOM      3  C   UNL     1       0.709   2.120  -1.277  1.00  0.00     0.005 A 
ATOM      4  C   UNL     1      -0.327   1.261  -0.906  1.00  0.00     0.012 A 
ATOM      5  C   UNL     1      -0.070   0.036  -0.261  1.00  0.00     0.023 A 
ATOM      6  C   UNL     1       1.280  -0.292  -0.005  1.00  0.00     0.058 A 
ENDROOT
BRANCH   1   7
ATOM      7  O   UNL     1       3.658   0.338  -0.169  1.00  0.00    -0.484 OA
BRANCH   7   8
ATOM      8  C   UNL     1       4.016  -0.883   0.476  1.00  0.00     0.329 C 
BRANCH   8   9
ATOM      9  C   UNL     1       5.534  -0.989   0.635  1.00  0.00     0.258 C 
ATOM     10  N   UNL     1       6.207   0.202   0.460  1.00  0.00    -0.351 N 
ATOM     11  H   UNL     1       5.667   0.951   0.036  1.00  0.00     0.163 HD
ATOM     12  O   UNL     1       6.087  -2.046   0.926  1.00  0.00    -0.271 OA
BRANCH  10  13
ATOM     13  C   UNL     1       7.659   0.280   0.441  1.00  0.00     0.075 C 
ATOM     14  C   UNL     1       8.110   1.691   0.805  1.00  0.00     0.030 C 
ATOM     15  C   UNL     1       8.202  -0.128  -0.926  1.00  0.00     0.030 C 
ENDBRANCH  10  13
ENDBRANCH   8   9
ENDBRANCH   7   8
ENDBRANCH   1   7
BRANCH   5  16
ATOM     16  C   UNL     1      -1.169  -0.871   0.132  1.00  0.00     0.162 A 
ATOM     17  N   UNL     1      -2.425  -0.463  -0.096  1.00  0.00    -0.210 NA
ATOM     18  N   UNL     1      -0.844  -2.048   0.691  1.00  0.00    -0.228 NA
ATOM     19  C   UNL     1      -3.429  -1.283   0.259  1.00  0.00     0.142 A 
ATOM     20  C   UNL     1      -1.843  -2.857   1.053  1.00  0.00     0.076 A 
ATOM     21  C   UNL     1      -3.191  -2.528   0.868  1.00  0.00     0.043 A 
ATOM     22  C   UNL     1      -1.529  -4.076   1.642  1.00  0.00     0.029 A 
ATOM     23  C   UNL     1      -4.195  -3.435   1.302  1.00  0.00     0.014 A 
ATOM     24  C   UNL     1      -2.515  -4.974   2.058  1.00  0.00     0.002 A 
ATOM     25  C   UNL     1      -3.854  -4.650   1.891  1.00  0.00     0.001 A 
BRANCH  19  26
ATOM     26  N   UNL     1      -4.771  -0.890  -0.003  1.00  0.00    -0.340 N 
ATOM     27  H   UNL     1      -5.222  -1.620  -0.544  1.00  0.00     0.168 HD
BRANCH  26  28
ATOM     28  C   UNL     1      -5.245   0.394  -0.369  1.00  0.00     0.040 A 
ATOM     29  C   UNL     1      -6.438   0.493  -1.104  1.00  0.00     0.028 A 
ATOM     30  C   UNL     1      -4.629   1.574   0.082  1.00  0.00     0.038 A 
ATOM     31  C   UNL     1      -7.002   1.728  -1.458  1.00  0.00     0.030 A 
ATOM     32  C   UNL     1      -5.172   2.824  -0.264  1.00  0.00     0.022 A 
ATOM     33  C   UNL     1      -6.334   2.873  -1.023  1.00  0.00     0.065 A 
ATOM     34  C   UNL     1      -4.846   4.178  -0.029  1.00  0.00     0.143 A 
ATOM     35  N   UNL     1      -6.602   4.207  -1.186  1.00  0.00    -0.278 N 
ATOM     36  N   UNL     1      -5.713   5.024  -0.592  1.00  0.00    -0.183 NA
ATOM     37  H   UNL     1      -7.377   4.625  -1.688  1.00  0.00     0.190 HD
ENDBRANCH  26  28
ENDBRANCH  19  26
ENDBRANCH   5  16
TORSDOF 7
