REMARK SMILES COC(=O)[C@H](c1ccccc1Cl)N1CCc2sccc2C1
REMARK SMILES IDX 3 1 4 2 2 3 1 4 5 5 6 6 7 7 11 8 8 9 10 10 12 11 9 12 13 13
REMARK SMILES IDX 14 14 21 15 15 16 20 17 16 18 19 19 17 20 18 21
REMARK H PARENT
REMARK Flexibility Score: inf
ROOT
ATOM      1  C   UNL     1      -1.060   2.162  -0.259  1.00  0.00     0.327 C 
ATOM      2  O   UNL     1      -2.117   2.727   0.011  1.00  0.00    -0.250 OA
ENDROOT
BRANCH   1   3
ATOM      3  O   UNL     1       0.139   2.809  -0.341  1.00  0.00    -0.468 OA
ATOM      4  C   UNL     1       0.082   4.199  -0.020  1.00  0.00     0.282 C 
ENDBRANCH   1   3
BRANCH   1   5
ATOM      5  C   UNL     1      -0.958   0.664  -0.639  1.00  0.00     0.200 C 
BRANCH   5   6
ATOM      6  C   UNL     1      -1.952  -0.241   0.095  1.00  0.00    -0.001 A 
ATOM      7  C   UNL     1      -2.679  -1.173  -0.680  1.00  0.00     0.007 A 
ATOM      8  C   UNL     1      -2.201  -0.216   1.481  1.00  0.00     0.046 A 
ATOM      9  C   UNL     1      -3.607  -2.042  -0.103  1.00  0.00     0.000 A 
ATOM     10  C   UNL     1      -3.135  -1.091   2.054  1.00  0.00     0.021 A 
ATOM     11  Cl  UNL     1      -1.398   0.854   2.576  1.00  0.00    -0.084 Cl
ATOM     12  C   UNL     1      -3.835  -2.002   1.266  1.00  0.00     0.002 A 
ENDBRANCH   5   6
BRANCH   5  13
ATOM     13  N   UNL     1       0.441   0.153  -0.745  1.00  0.00    -0.282 NA
ATOM     14  C   UNL     1       0.562  -1.057  -1.584  1.00  0.00     0.091 C 
ATOM     15  C   UNL     1       1.132  -0.012   0.547  1.00  0.00     0.122 C 
ATOM     16  C   UNL     1       2.024  -1.317  -2.014  1.00  0.00     0.062 C 
ATOM     17  C   UNL     1       2.544  -0.480   0.317  1.00  0.00    -0.020 A 
ATOM     18  C   UNL     1       2.935  -1.105  -0.851  1.00  0.00     0.010 A 
ATOM     19  C   UNL     1       3.636  -0.390   1.235  1.00  0.00     0.017 A 
ATOM     20  S   UNL     1       4.567  -1.568  -0.853  1.00  0.00    -0.149 S 
ATOM     21  C   UNL     1       4.792  -0.941   0.725  1.00  0.00     0.065 A 
ENDBRANCH   5  13
ENDBRANCH   1   5
TORSDOF 4
