REMARK SMILES CCOC(=O)[C@H](CCc1ccccc1)N[C@H]1CCCN2CCC[C@@H](C(=O)O)N2C1=O
REMARK SMILES IDX 16 1 15 3 6 5 4 6 5 7 3 8 2 9 1 10 7 11 8 12 9 13 10 14
REMARK SMILES IDX 14 15 11 16 13 17 12 18 29 19 30 20 28 21 20 22 24 23 21 24
REMARK SMILES IDX 23 25 22 26 19 27 18 28 17 29 25 31 26 32 27 33
REMARK H PARENT 15 4 27 34
REMARK Flexibility Score: 90.00
ROOT
ATOM      1  C   UNL     1       1.099   0.227  -0.374  1.00  0.00     0.146 CG0
ATOM      2  G   UNL     1       1.689   1.512   0.204  1.00  0.00     0.000 G0
ENDROOT
BRANCH   1   3
ATOM      3  N   UNL     1      -0.284  -0.026   0.102  1.00  0.00    -0.293 NA
ATOM      4  H   UNL     1      -0.277  -0.114   1.125  1.00  0.00     0.124 HD
BRANCH   3   5
ATOM      5  C   UNL     1      -1.293   0.964  -0.319  1.00  0.00     0.165 C 
BRANCH   5   6
ATOM      6  C   UNL     1      -1.664   1.898   0.845  1.00  0.00     0.323 C 
ATOM      7  O   UNL     1      -1.321   1.729   2.009  1.00  0.00    -0.250 OA
BRANCH   6   8
ATOM      8  O   UNL     1      -2.425   2.936   0.393  1.00  0.00    -0.465 OA
BRANCH   8   9
ATOM      9  C   UNL     1      -2.859   3.871   1.391  1.00  0.00     0.229 C 
ATOM     10  C   UNL     1      -4.149   3.389   2.030  1.00  0.00     0.049 C 
ENDBRANCH   8   9
ENDBRANCH   6   8
ENDBRANCH   5   6
BRANCH   5  11
ATOM     11  C   UNL     1      -2.546   0.243  -0.842  1.00  0.00     0.036 C 
BRANCH  11  12
ATOM     12  C   UNL     1      -3.225  -0.672   0.186  1.00  0.00     0.038 C 
BRANCH  12  13
ATOM     13  C   UNL     1      -4.490  -1.277  -0.373  1.00  0.00    -0.048 A 
ATOM     14  C   UNL     1      -5.724  -0.635  -0.200  1.00  0.00     0.004 A 
ATOM     15  C   UNL     1      -4.442  -2.475  -1.098  1.00  0.00     0.004 A 
ATOM     16  C   UNL     1      -6.889  -1.189  -0.733  1.00  0.00     0.000 A 
ATOM     17  C   UNL     1      -5.608  -3.027  -1.631  1.00  0.00     0.000 A 
ATOM     18  C   UNL     1      -6.831  -2.384  -1.448  1.00  0.00     0.000 A 
ENDBRANCH  12  13
ENDBRANCH  11  12
ENDBRANCH   5  11
ENDBRANCH   3   5
ENDBRANCH   1   3
BRANCH   1  19
ATOM     19  C   UNL     1       1.983  -0.991   0.030  1.00  0.00     0.254 C 
ATOM     20  O   UNL     1       1.451  -1.976   0.570  1.00  0.00    -0.272 OA
BRANCH  19  21
ATOM     21  N   UNL     1       3.376  -1.006  -0.222  1.00  0.00    -0.260 N 
ATOM     22  N   UNL     1       4.188   0.151  -0.615  1.00  0.00    -0.218 NA
ATOM     23  C   UNL     1       4.087  -2.094   0.503  1.00  0.00     0.213 C 
ATOM     24  C   UNL     1       5.450  -0.270  -1.267  1.00  0.00     0.108 C 
ATOM     25  C   UNL     1       5.440  -2.454  -0.106  1.00  0.00     0.040 C 
ATOM     26  C   UNL     1       6.259  -1.210  -0.387  1.00  0.00     0.020 C 
BRANCH  22  27
ATOM     27  C   UNL     1       3.539   1.107  -1.520  1.00  0.00     0.108 C 
BRANCH  27  28
ATOM     28  C   UNL     1       2.702   2.124  -0.753  1.00  0.00     0.020 C 
BRANCH  28  29
ATOM     29  C   UNL     1       1.689   1.512   0.204  1.00  0.00     0.030 CG0
ATOM     30  G   UNL     1       1.099   0.227  -0.374  1.00  0.00     0.000 G0
ENDBRANCH  28  29
ENDBRANCH  27  28
ENDBRANCH  22  27
BRANCH  23  31
ATOM     31  C   UNL     1       4.221  -1.752   1.994  1.00  0.00     0.328 C 
ATOM     32  O   UNL     1       4.025  -0.680   2.545  1.00  0.00    -0.250 OA
BRANCH  31  33
ATOM     33  O   UNL     1       4.617  -2.812   2.737  1.00  0.00    -0.480 OA
ATOM     34  H   UNL     1       4.610  -2.460   3.652  1.00  0.00     0.296 HD
ENDBRANCH  31  33
ENDBRANCH  23  31
ENDBRANCH  19  21
ENDBRANCH   1  19
TORSDOF 10
