REMARK SMILES CN(C)CCCN1c2ccccc2Sc2ccccc21
REMARK SMILES IDX 5 1 4 2 2 3 1 4 3 5 6 6 7 7 8 8 20 9 9 10 13 11 15 12 19 13
REMARK SMILES IDX 10 14 12 15 14 16 16 17 18 18 11 19 17 20
REMARK H PARENT
REMARK Flexibility Score: inf
ROOT
ATOM      1  C   UNL     1       1.266   0.160  -0.304  1.00  0.00     0.037 C 
ENDROOT
BRANCH   1   2
ATOM      2  C   UNL     1       2.685   0.351   0.246  1.00  0.00     0.085 C 
BRANCH   2   3
ATOM      3  N   UNL     1       3.722   0.321  -0.799  1.00  0.00    -0.309 NA
ATOM      4  C   UNL     1       5.014   0.724  -0.236  1.00  0.00     0.104 C 
ATOM      5  C   UNL     1       3.847  -0.998  -1.423  1.00  0.00     0.104 C 
ENDBRANCH   2   3
ENDBRANCH   1   2
BRANCH   1   6
ATOM      6  C   UNL     1       0.229   0.378   0.809  1.00  0.00     0.124 C 
BRANCH   6   7
ATOM      7  N   UNL     1      -1.152   0.131   0.335  1.00  0.00    -0.340 N 
ATOM      8  C   UNL     1      -1.679  -1.181   0.518  1.00  0.00     0.055 A 
ATOM      9  C   UNL     1      -1.884   1.254  -0.151  1.00  0.00     0.055 A 
ATOM     10  C   UNL     1      -0.850  -2.297   0.779  1.00  0.00     0.027 A 
ATOM     11  C   UNL     1      -3.060  -1.445   0.424  1.00  0.00     0.036 A 
ATOM     12  C   UNL     1      -3.285   1.215  -0.307  1.00  0.00     0.036 A 
ATOM     13  C   UNL     1      -1.251   2.461  -0.528  1.00  0.00     0.027 A 
ATOM     14  C   UNL     1      -1.355  -3.591   0.948  1.00  0.00     0.002 A 
ATOM     15  C   UNL     1      -3.565  -2.749   0.598  1.00  0.00     0.017 A 
ATOM     16  S   UNL     1      -4.283  -0.191   0.124  1.00  0.00    -0.086 SA
ATOM     17  C   UNL     1      -3.994   2.330  -0.798  1.00  0.00     0.017 A 
ATOM     18  C   UNL     1      -1.960   3.566  -1.018  1.00  0.00     0.002 A 
ATOM     19  C   UNL     1      -2.718  -3.819   0.859  1.00  0.00     0.001 A 
ATOM     20  C   UNL     1      -3.336   3.501  -1.152  1.00  0.00     0.001 A 
ENDBRANCH   6   7
ENDBRANCH   1   6
TORSDOF 4
