REMARK SMILES Nc1ccc(S(=O)(=O)Nc2ccnn2-c2ccccc2)cc1
REMARK SMILES IDX 6 1 7 2 8 3 5 4 2 5 3 6 22 7 4 8 21 9 1 10 9 13 10 15 11 16
REMARK SMILES IDX 14 17 12 18 13 19 15 20 16 21 20 22 17 23 19 24 18 25
REMARK H PARENT 1 11 1 12 9 14
REMARK Flexibility Score: inf
ROOT
ATOM      1  S   UNL     1       0.970  -0.832   2.822  1.00  0.00     0.263 S 
ATOM      2  O   UNL     1       0.907   0.201   3.836  1.00  0.00    -0.201 OA
ATOM      3  O   UNL     1       1.710  -2.056   3.036  1.00  0.00    -0.201 OA
ENDROOT
BRANCH   1   4
ATOM      4  C   UNL     1       1.562  -0.069   1.330  1.00  0.00     0.088 A 
ATOM      5  C   UNL     1       2.503   1.148  -1.009  1.00  0.00     0.031 A 
ATOM      6  C   UNL     1       1.724   1.869  -0.098  1.00  0.00     0.027 A 
ATOM      7  C   UNL     1       2.751  -0.206  -0.764  1.00  0.00     0.027 A 
ATOM      8  C   UNL     1       1.276   1.276   1.086  1.00  0.00     0.024 A 
ATOM      9  C   UNL     1       2.310  -0.812   0.415  1.00  0.00     0.024 A 
BRANCH   5  10
ATOM     10  N   UNL     1       2.839   1.712  -2.245  1.00  0.00    -0.399 N 
ATOM     11  H   UNL     1       2.918   2.723  -2.230  1.00  0.00     0.156 HD
ATOM     12  H   UNL     1       3.632   1.269  -2.699  1.00  0.00     0.156 HD
ENDBRANCH   5  10
ENDBRANCH   1   4
BRANCH   1  13
ATOM     13  N   UNL     1      -0.647  -1.225   2.463  1.00  0.00    -0.263 N 
ATOM     14  H   UNL     1      -1.251  -0.451   2.724  1.00  0.00     0.182 HD
BRANCH  13  15
ATOM     15  C   UNL     1      -0.869  -1.927   1.188  1.00  0.00     0.143 A 
ATOM     16  C   UNL     1      -0.563  -3.259   1.024  1.00  0.00     0.070 A 
ATOM     17  N   UNL     1      -1.290  -1.455  -0.055  1.00  0.00    -0.217 N 
ATOM     18  C   UNL     1      -0.735  -3.499  -0.344  1.00  0.00     0.138 A 
ATOM     19  N   UNL     1      -1.124  -2.414  -1.011  1.00  0.00    -0.174 NA
BRANCH  17  20
ATOM     20  C   UNL     1      -1.789  -0.173  -0.419  1.00  0.00     0.067 A 
ATOM     21  C   UNL     1      -1.693   0.236  -1.759  1.00  0.00     0.028 A 
ATOM     22  C   UNL     1      -2.387   0.683   0.513  1.00  0.00     0.028 A 
ATOM     23  C   UNL     1      -2.144   1.499  -2.147  1.00  0.00     0.002 A 
ATOM     24  C   UNL     1      -2.841   1.945   0.118  1.00  0.00     0.002 A 
ATOM     25  C   UNL     1      -2.712   2.356  -1.207  1.00  0.00     0.000 A 
ENDBRANCH  17  20
ENDBRANCH  13  15
ENDBRANCH   1  13
TORSDOF 5
