REMARK SMILES CC(C)Nc1nc2cc(Cl)c(Cl)cc2n1[C@H]1O[C@@H](CO)[C@H](O)[C@@H]1O
REMARK SMILES IDX 5 1 6 2 7 3 8 4 9 5 10 6 11 7 12 8 13 9 14 10 15 11 4 12
REMARK SMILES IDX 2 14 1 15 3 16 16 17 17 18 23 19 18 20 21 21 24 22 19 24
REMARK SMILES IDX 20 25 22 27
REMARK H PARENT 4 13 24 23 20 26 22 28
REMARK Flexibility Score: inf
ROOT
ATOM      1  C   UNL     1       1.470   0.161   0.072  1.00  0.00     0.206 A 
ATOM      2  N   UNL     1       2.160   1.274   0.146  1.00  0.00    -0.213 NA
ATOM      3  C   UNL     1       1.291   2.228   0.593  1.00  0.00     0.092 A 
ATOM      4  C   UNL     1       1.528   3.591   0.821  1.00  0.00     0.052 A 
ATOM      5  C   UNL     1       0.475   4.396   1.271  1.00  0.00     0.061 A 
ATOM      6  Cl  UNL     1       0.812   6.073   1.530  1.00  0.00    -0.083 Cl
ATOM      7  C   UNL     1      -0.794   3.848   1.491  1.00  0.00     0.061 A 
ATOM      8  Cl  UNL     1      -2.129   4.805   2.038  1.00  0.00    -0.083 Cl
ATOM      9  C   UNL     1      -1.038   2.484   1.272  1.00  0.00     0.050 A 
ATOM     10  C   UNL     1       0.026   1.692   0.818  1.00  0.00     0.074 A 
ATOM     11  N   UNL     1       0.167   0.355   0.503  1.00  0.00    -0.281 N 
ENDROOT
BRANCH   1  12
ATOM     12  N   UNL     1       1.907  -1.045  -0.361  1.00  0.00    -0.353 N 
ATOM     13  H   UNL     1       1.230  -1.694  -0.767  1.00  0.00     0.163 HD
BRANCH  12  14
ATOM     14  C   UNL     1       3.250  -1.147  -0.933  1.00  0.00     0.076 C 
ATOM     15  C   UNL     1       3.308  -2.364  -1.858  1.00  0.00     0.030 C 
ATOM     16  C   UNL     1       4.283  -1.290   0.184  1.00  0.00     0.030 C 
ENDBRANCH  12  14
ENDBRANCH   1  12
BRANCH  11  17
ATOM     17  C   UNL     1      -0.819  -0.717   0.584  1.00  0.00     0.254 C 
ATOM     18  O   UNL     1      -1.956  -0.342   1.389  1.00  0.00    -0.347 OA
ATOM     19  C   UNL     1      -1.364  -1.122  -0.787  1.00  0.00     0.195 C 
ATOM     20  C   UNL     1      -3.144  -0.926   0.795  1.00  0.00     0.178 C 
ATOM     21  C   UNL     1      -2.683  -1.764  -0.396  1.00  0.00     0.179 C 
BRANCH  19  22
ATOM     22  O   UNL     1      -0.537  -2.066  -1.484  1.00  0.00    -0.386 OA
ATOM     23  H   UNL     1      -0.833  -2.056  -2.415  1.00  0.00     0.211 HD
ENDBRANCH  19  22
BRANCH  20  24
ATOM     24  C   UNL     1      -4.107   0.199   0.403  1.00  0.00     0.191 C 
BRANCH  24  25
ATOM     25  O   UNL     1      -3.597   0.949  -0.697  1.00  0.00    -0.394 OA
ATOM     26  H   UNL     1      -4.159   1.742  -0.783  1.00  0.00     0.210 HD
ENDBRANCH  24  25
ENDBRANCH  20  24
BRANCH  21  27
ATOM     27  O   UNL     1      -2.446  -3.115   0.034  1.00  0.00    -0.387 OA
ATOM     28  H   UNL     1      -1.712  -3.458  -0.516  1.00  0.00     0.211 HD
ENDBRANCH  21  27
ENDBRANCH  11  17
TORSDOF 7
