REMARK SMILES C[C@]1(Cn2ccnn2)[C@H](C(=O)O)N2C(=O)C[C@H]2S1(=O)=O
REMARK SMILES IDX 1 1 2 2 9 3 13 4 14 5 15 6 16 7 17 8 18 9 19 10 20 11 3 12
REMARK SMILES IDX 4 13 5 14 8 15 6 16 7 17 10 18 11 19 12 20
REMARK H PARENT 12 21
REMARK Flexibility Score: inf
ROOT
ATOM      1  C   UNL     1       1.199   1.081   1.296  1.00  0.00     0.034 C 
ATOM      2  C   UNL     1       0.245   0.003   0.748  1.00  0.00     0.122 C 
ATOM      3  C   UNL     1      -0.586   0.457  -0.465  1.00  0.00     0.219 C 
ATOM      4  N   UNL     1      -1.732   1.230   0.034  1.00  0.00    -0.309 N 
ATOM      5  C   UNL     1      -2.994   0.875  -0.366  1.00  0.00     0.227 C 
ATOM      6  O   UNL     1      -3.397   0.501  -1.439  1.00  0.00    -0.275 OA
ATOM      7  C   UNL     1      -3.538   0.977   1.066  1.00  0.00     0.142 C 
ATOM      8  C   UNL     1      -2.077   1.166   1.479  1.00  0.00     0.215 C 
ATOM      9  S   UNL     1      -1.096  -0.249   1.979  1.00  0.00     0.181 S 
ATOM     10  O   UNL     1      -1.790  -1.478   1.642  1.00  0.00    -0.226 OA
ATOM     11  O   UNL     1      -0.564  -0.054   3.312  1.00  0.00    -0.226 OA
ENDROOT
BRANCH   2  12
ATOM     12  C   UNL     1       0.934  -1.362   0.567  1.00  0.00     0.171 C 
BRANCH  12  13
ATOM     13  N   UNL     1       1.904  -1.449  -0.501  1.00  0.00    -0.251 N 
ATOM     14  C   UNL     1       1.877  -2.266  -1.590  1.00  0.00     0.131 A 
ATOM     15  N   UNL     1       3.025  -0.714  -0.470  1.00  0.00    -0.067 NA
ATOM     16  C   UNL     1       3.044  -1.966  -2.251  1.00  0.00     0.157 A 
ATOM     17  N   UNL     1       3.726  -1.010  -1.555  1.00  0.00    -0.139 NA
ENDBRANCH  12  13
ENDBRANCH   2  12
BRANCH   3  18
ATOM     18  C   UNL     1       0.169   1.322  -1.463  1.00  0.00     0.328 C 
ATOM     19  O   UNL     1       0.382   2.520  -1.370  1.00  0.00    -0.250 OA
BRANCH  18  20
ATOM     20  O   UNL     1       0.646   0.614  -2.502  1.00  0.00    -0.480 OA
ATOM     21  H   UNL     1       1.162   1.258  -3.033  1.00  0.00     0.296 HD
ENDBRANCH  18  20
ENDBRANCH   3  18
TORSDOF 4
