REMARK SMILES CC(C)n1nc(-c2ccc3oc(N)nc3c2)c2c(N)ncnc21
REMARK SMILES IDX 7 1 8 2 9 3 10 4 11 5 12 6 14 7 15 8 16 9 6 10 4 11 5 12
REMARK SMILES IDX 23 13 17 14 22 15 18 16 21 17 20 18 2 19 1 20 3 21 19 22
REMARK SMILES IDX 13 25
REMARK H PARENT 19 23 19 24 13 26 13 27
REMARK Flexibility Score: inf
ROOT
ATOM      1  C   UNL     1       1.035   0.166  -0.539  1.00  0.00     0.005 A 
ATOM      2  C   UNL     1       1.453   0.627  -1.802  1.00  0.00     0.014 A 
ATOM      3  C   UNL     1       2.803   0.869  -2.087  1.00  0.00     0.050 A 
ATOM      4  C   UNL     1       3.686   0.630  -1.042  1.00  0.00     0.156 A 
ATOM      5  O   UNL     1       5.042   0.779  -1.050  1.00  0.00    -0.424 OA
ATOM      6  C   UNL     1       5.412   0.426   0.213  1.00  0.00     0.292 A 
ATOM      7  N   UNL     1       4.435   0.052   1.004  1.00  0.00    -0.194 NA
ATOM      8  C   UNL     1       3.320   0.189   0.218  1.00  0.00     0.112 A 
ATOM      9  C   UNL     1       1.967  -0.046   0.494  1.00  0.00     0.043 A 
ENDROOT
BRANCH   1  10
ATOM     10  C   UNL     1      -0.382  -0.071  -0.294  1.00  0.00     0.106 A 
ATOM     11  N   UNL     1      -2.444   0.389  -0.062  1.00  0.00    -0.244 N 
ATOM     12  N   UNL     1      -1.255   0.947  -0.379  1.00  0.00    -0.170 NA
ATOM     13  C   UNL     1      -2.363  -0.952   0.200  1.00  0.00     0.164 A 
ATOM     14  C   UNL     1      -1.030  -1.295   0.045  1.00  0.00     0.089 A 
ATOM     15  N   UNL     1      -3.374  -1.774   0.534  1.00  0.00    -0.217 NA
ATOM     16  C   UNL     1      -0.705  -2.645   0.230  1.00  0.00     0.138 A 
ATOM     17  C   UNL     1      -2.943  -3.033   0.704  1.00  0.00     0.226 A 
ATOM     18  N   UNL     1      -1.688  -3.504   0.575  1.00  0.00    -0.219 NA
BRANCH  11  19
ATOM     19  C   UNL     1      -3.652   1.205  -0.032  1.00  0.00     0.103 C 
ATOM     20  C   UNL     1      -3.967   1.786  -1.410  1.00  0.00     0.033 C 
ATOM     21  C   UNL     1      -3.555   2.304   1.026  1.00  0.00     0.033 C 
ENDBRANCH  11  19
BRANCH  16  22
ATOM     22  N   UNL     1       0.557  -3.191   0.076  1.00  0.00    -0.383 N 
ATOM     23  H   UNL     1       1.354  -2.582   0.183  1.00  0.00     0.158 HD
ATOM     24  H   UNL     1       0.623  -4.113   0.490  1.00  0.00     0.158 HD
ENDBRANCH  16  22
ENDBRANCH   1  10
BRANCH   6  25
ATOM     25  N   UNL     1       6.719   0.479   0.480  1.00  0.00    -0.353 N 
ATOM     26  H   UNL     1       7.024  -0.075   1.271  1.00  0.00     0.161 HD
ATOM     27  H   UNL     1       7.342   0.438  -0.317  1.00  0.00     0.161 HD
ENDBRANCH   6  25
TORSDOF 4
