REMARK SMILES Cc1nsc(-c2nnc3n2CCN(C(=O)c2ccc(F)cc2)[C@@H]3C)n1
REMARK SMILES IDX 6 1 7 2 8 3 9 4 10 5 11 6 12 7 13 8 23 9 24 10 5 11 1 12
REMARK SMILES IDX 2 13 3 14 25 15 4 16 14 17 15 18 16 19 17 20 22 21 18 22
REMARK SMILES IDX 21 23 19 24 20 25
REMARK H PARENT
REMARK Flexibility Score: inf
ROOT
ATOM      1  C   UNL     1       2.549   0.925   0.617  1.00  0.00     0.194 A 
ATOM      2  N   UNL     1       2.276   2.163   0.984  1.00  0.00    -0.127 NA
ATOM      3  N   UNL     1       1.021   2.490   0.524  1.00  0.00    -0.133 NA
ATOM      4  C   UNL     1       0.546   1.447  -0.122  1.00  0.00     0.156 A 
ATOM      5  N   UNL     1       1.489   0.448  -0.103  1.00  0.00    -0.305 N 
ATOM      6  C   UNL     1       1.297  -0.858  -0.703  1.00  0.00     0.147 C 
ATOM      7  C   UNL     1       0.131  -0.824  -1.689  1.00  0.00     0.142 C 
ATOM      8  N   UNL     1      -1.019  -0.121  -1.111  1.00  0.00    -0.327 N 
ATOM      9  C   UNL     1      -0.790   1.308  -0.794  1.00  0.00     0.151 C 
ATOM     10  C   UNL     1      -0.861   2.178  -2.048  1.00  0.00     0.040 C 
ENDROOT
BRANCH   1  11
ATOM     11  C   UNL     1       3.744   0.211   0.936  1.00  0.00     0.181 A 
ATOM     12  C   UNL     1       5.764  -2.759   0.850  1.00  0.00     0.091 C 
ATOM     13  C   UNL     1       5.235  -1.395   1.086  1.00  0.00     0.140 A 
ATOM     14  N   UNL     1       5.965  -0.494   1.748  1.00  0.00    -0.176 NA
ATOM     15  N   UNL     1       3.981  -1.042   0.598  1.00  0.00    -0.216 NA
ATOM     16  S   UNL     1       5.046   0.901   1.816  1.00  0.00    -0.010 S 
ENDBRANCH   1  11
BRANCH   8  17
ATOM     17  C   UNL     1      -1.916  -0.902  -0.374  1.00  0.00     0.254 C 
ATOM     18  O   UNL     1      -1.739  -2.100  -0.165  1.00  0.00    -0.269 OA
BRANCH  17  19
ATOM     19  C   UNL     1      -3.146  -0.275   0.163  1.00  0.00     0.040 A 
ATOM     20  C   UNL     1      -3.503  -0.521   1.494  1.00  0.00     0.017 A 
ATOM     21  C   UNL     1      -3.971   0.505  -0.660  1.00  0.00     0.017 A 
ATOM     22  C   UNL     1      -4.668   0.046   2.014  1.00  0.00     0.040 A 
ATOM     23  C   UNL     1      -5.134   1.070  -0.134  1.00  0.00     0.040 A 
ATOM     24  C   UNL     1      -5.469   0.838   1.197  1.00  0.00     0.123 A 
ATOM     25  F   UNL     1      -6.586   1.380   1.697  1.00  0.00    -0.207 F 
ENDBRANCH  17  19
ENDBRANCH   8  17
TORSDOF 3
