REMARK SMILES CC(C)(C)OC[C@@H]1C(=O)NCCN1C(=O)C[C@H](N)Cc1cc(F)c(F)cc1F
REMARK SMILES IDX 14 1 15 2 13 3 7 4 8 5 9 6 10 7 12 8 11 9 6 11 5 12 2 13
REMARK SMILES IDX 1 14 3 15 4 16 16 17 17 18 18 19 19 22 20 23 21 24 27 25
REMARK SMILES IDX 22 26 26 27 28 28 23 29 24 30 25 31
REMARK H PARENT 10 10 18 20 18 21
REMARK Flexibility Score: inf
ROOT
ATOM      1  C   UNL     1       0.424  -0.536   0.575  1.00  0.00     0.224 C 
ATOM      2  O   UNL     1       0.921  -0.265   1.667  1.00  0.00    -0.275 OA
ENDROOT
BRANCH   1   3
ATOM      3  N   UNL     1      -0.746  -1.275   0.469  1.00  0.00    -0.326 N 
ATOM      4  C   UNL     1      -1.535  -1.450  -0.777  1.00  0.00     0.200 C 
ATOM      5  C   UNL     1      -2.395  -2.732  -0.825  1.00  0.00     0.245 C 
ATOM      6  O   UNL     1      -2.907  -3.134  -1.870  1.00  0.00    -0.273 OA
ATOM      7  N   UNL     1      -2.658  -3.383   0.353  1.00  0.00    -0.352 N 
ATOM      8  C   UNL     1      -1.400  -1.730   1.699  1.00  0.00     0.141 C 
ATOM      9  C   UNL     1      -1.864  -3.175   1.545  1.00  0.00     0.137 C 
ATOM     10  H   UNL     1      -3.187  -4.239   0.249  1.00  0.00     0.163 HD
BRANCH   4  11
ATOM     11  C   UNL     1      -2.449  -0.244  -1.093  1.00  0.00     0.196 C 
BRANCH  11  12
ATOM     12  O   UNL     1      -3.386  -0.029  -0.037  1.00  0.00    -0.373 OA
BRANCH  12  13
ATOM     13  C   UNL     1      -4.353   1.017  -0.212  1.00  0.00     0.060 C 
ATOM     14  C   UNL     1      -3.684   2.384  -0.398  1.00  0.00     0.042 C 
ATOM     15  C   UNL     1      -5.158   1.033   1.095  1.00  0.00     0.042 C 
ATOM     16  C   UNL     1      -5.304   0.709  -1.374  1.00  0.00     0.042 C 
ENDBRANCH  12  13
ENDBRANCH  11  12
ENDBRANCH   4  11
ENDBRANCH   1   3
BRANCH   1  17
ATOM     17  C   UNL     1       1.091  -0.098  -0.723  1.00  0.00     0.119 C 
BRANCH  17  18
ATOM     18  C   UNL     1       2.430   0.634  -0.508  1.00  0.00     0.064 C 
BRANCH  18  19
ATOM     19  N   UNL     1       2.832   1.282  -1.775  1.00  0.00    -0.327 NA
ATOM     20  H   UNL     1       2.141   1.982  -2.041  1.00  0.00     0.119 HD
ATOM     21  H   UNL     1       2.868   0.599  -2.530  1.00  0.00     0.119 HD
ENDBRANCH  18  19
BRANCH  18  22
ATOM     22  C   UNL     1       3.543  -0.340  -0.044  1.00  0.00     0.058 C 
BRANCH  22  23
ATOM     23  C   UNL     1       4.858   0.341   0.262  1.00  0.00    -0.008 A 
ATOM     24  C   UNL     1       5.944   0.236  -0.619  1.00  0.00     0.049 A 
ATOM     25  C   UNL     1       5.011   1.104   1.428  1.00  0.00     0.129 A 
ATOM     26  C   UNL     1       7.142   0.882  -0.323  1.00  0.00     0.159 A 
ATOM     27  C   UNL     1       6.207   1.748   1.726  1.00  0.00     0.082 A 
ATOM     28  F   UNL     1       3.989   1.220   2.287  1.00  0.00    -0.207 F 
ATOM     29  F   UNL     1       8.173   0.774  -1.172  1.00  0.00    -0.204 F 
ATOM     30  C   UNL     1       7.271   1.632   0.841  1.00  0.00     0.161 A 
ATOM     31  F   UNL     1       8.428   2.248   1.120  1.00  0.00    -0.204 F 
ENDBRANCH  22  23
ENDBRANCH  18  22
ENDBRANCH  17  18
ENDBRANCH   1  17
TORSDOF 9
