REMARK SMILES CCC1(c2ccccc2)NC(=O)N(C)C1=O
REMARK SMILES IDX 3 1 10 2 11 3 12 4 13 5 14 6 15 7 16 8 2 10 1 11 4 12 5 13
REMARK SMILES IDX 9 14 6 15 8 16 7 17
REMARK H PARENT 10 9
REMARK Flexibility Score: inf
ROOT
ATOM      1  C   UNL     1      -0.478  -0.259  -0.382  1.00  0.00     0.146 C 
ATOM      2  N   UNL     1      -0.498   0.262  -1.742  1.00  0.00    -0.319 N 
ATOM      3  C   UNL     1      -1.198   1.434  -1.862  1.00  0.00     0.325 C 
ATOM      4  O   UNL     1      -1.245   2.092  -2.888  1.00  0.00    -0.248 OA
ATOM      5  N   UNL     1      -1.782   1.716  -0.670  1.00  0.00    -0.265 N 
ATOM      6  C   UNL     1      -2.573   2.890  -0.404  1.00  0.00     0.158 C 
ATOM      7  C   UNL     1      -1.390   0.812   0.279  1.00  0.00     0.260 C 
ATOM      8  O   UNL     1      -1.714   0.853   1.461  1.00  0.00    -0.271 OA
ATOM      9  H   UNL     1       0.115  -0.035  -2.488  1.00  0.00     0.166 HD
ENDROOT
BRANCH   1  10
ATOM     10  C   UNL     1      -1.188  -1.631  -0.353  1.00  0.00     0.040 C 
ATOM     11  C   UNL     1      -1.196  -2.319   1.008  1.00  0.00     0.007 C 
ENDBRANCH   1  10
BRANCH   1  12
ATOM     12  C   UNL     1       0.967  -0.295   0.112  1.00  0.00    -0.013 A 
ATOM     13  C   UNL     1       1.417   0.460   1.207  1.00  0.00     0.007 A 
ATOM     14  C   UNL     1       1.908  -1.116  -0.546  1.00  0.00     0.007 A 
ATOM     15  C   UNL     1       2.749   0.399   1.627  1.00  0.00     0.000 A 
ATOM     16  C   UNL     1       3.238  -1.175  -0.126  1.00  0.00     0.000 A 
ATOM     17  C   UNL     1       3.659  -0.416   0.961  1.00  0.00     0.000 A 
ENDBRANCH   1  12
TORSDOF 2
