REMARK SMILES CCOC(=O)C1(c2ccccc2)CCN(CCc2ccc(N)cc2)CC1
REMARK SMILES IDX 6 1 13 2 14 3 15 4 25 5 26 6 4 7 5 8 3 9 2 10 1 11 7 12 8 13
REMARK SMILES IDX 12 14 9 15 11 16 10 17 16 18 17 19 18 20 19 21 24 22 20 23
REMARK SMILES IDX 23 24 21 25 22 26
REMARK H PARENT 22 27 22 28
REMARK Flexibility Score: inf
ROOT
ATOM      1  C   UNL     1      -2.159   0.659  -0.331  1.00  0.00     0.095 C 
ATOM      2  C   UNL     1      -1.412   0.083  -1.569  1.00  0.00     0.039 C 
ATOM      3  C   UNL     1       0.036  -0.284  -1.242  1.00  0.00     0.086 C 
ATOM      4  N   UNL     1       0.836   0.889  -0.860  1.00  0.00    -0.303 NA
ATOM      5  C   UNL     1       0.054   1.938  -0.192  1.00  0.00     0.086 C 
ATOM      6  C   UNL     1      -1.141   1.395   0.589  1.00  0.00     0.039 C 
ENDROOT
BRANCH   1   7
ATOM      7  C   UNL     1      -2.755  -0.436   0.589  1.00  0.00     0.316 C 
ATOM      8  O   UNL     1      -3.466  -0.198   1.561  1.00  0.00    -0.251 OA
BRANCH   7   9
ATOM      9  O   UNL     1      -2.376  -1.691   0.219  1.00  0.00    -0.465 OA
BRANCH   9  10
ATOM     10  C   UNL     1      -2.880  -2.767   1.025  1.00  0.00     0.229 C 
ATOM     11  C   UNL     1      -4.253  -3.185   0.535  1.00  0.00     0.049 C 
ENDBRANCH   9  10
ENDBRANCH   7   9
ENDBRANCH   1   7
BRANCH   1  12
ATOM     12  C   UNL     1      -3.312   1.530  -0.881  1.00  0.00    -0.031 A 
ATOM     13  C   UNL     1      -3.304   2.933  -0.836  1.00  0.00     0.005 A 
ATOM     14  C   UNL     1      -4.414   0.904  -1.501  1.00  0.00     0.005 A 
ATOM     15  C   UNL     1      -4.362   3.678  -1.368  1.00  0.00     0.000 A 
ATOM     16  C   UNL     1      -5.470   1.649  -2.031  1.00  0.00     0.000 A 
ATOM     17  C   UNL     1      -5.444   3.038  -1.963  1.00  0.00     0.000 A 
ENDBRANCH   1  12
BRANCH   4  18
ATOM     18  C   UNL     1       2.036   0.521  -0.085  1.00  0.00     0.089 C 
BRANCH  18  19
ATOM     19  C   UNL     1       3.007  -0.396  -0.849  1.00  0.00     0.051 C 
BRANCH  19  20
ATOM     20  C   UNL     1       4.257  -0.672  -0.048  1.00  0.00    -0.047 A 
ATOM     21  C   UNL     1       4.312  -1.755   0.837  1.00  0.00     0.006 A 
ATOM     22  C   UNL     1       5.363   0.180  -0.141  1.00  0.00     0.006 A 
ATOM     23  C   UNL     1       5.463  -1.993   1.594  1.00  0.00     0.026 A 
ATOM     24  C   UNL     1       6.510  -0.064   0.621  1.00  0.00     0.026 A 
ATOM     25  C   UNL     1       6.591  -1.181   1.455  1.00  0.00     0.031 A 
BRANCH  25  26
ATOM     26  N   UNL     1       7.694  -1.353   2.299  1.00  0.00    -0.399 N 
ATOM     27  H   UNL     1       8.552  -0.951   1.936  1.00  0.00     0.156 HD
ATOM     28  H   UNL     1       7.821  -2.310   2.613  1.00  0.00     0.156 HD
ENDBRANCH  25  26
ENDBRANCH  19  20
ENDBRANCH  18  19
ENDBRANCH   4  18
TORSDOF 8
