REMARK SMILES CCC(=O)N(c1ccccc1)C1(C(=O)OC)CCN(CCC(=O)OC)CC1
REMARK SMILES IDX 12 1 17 2 18 3 19 4 26 5 27 6 5 7 3 8 4 9 2 10 1 11 6 12
REMARK SMILES IDX 7 13 11 14 8 15 10 16 9 17 13 18 14 19 15 20 16 21 20 22
REMARK SMILES IDX 21 23 22 24 23 25 24 26 25 27
REMARK H PARENT
REMARK Flexibility Score: inf
ROOT
ATOM      1  C   UNL     1      -0.581   0.753   0.005  1.00  0.00     0.147 C 
ATOM      2  C   UNL     1       0.387   0.531  -1.198  1.00  0.00     0.057 C 
ATOM      3  C   UNL     1       1.859   0.410  -0.796  1.00  0.00     0.087 C 
ATOM      4  N   UNL     1       2.125  -0.678   0.147  1.00  0.00    -0.303 NA
ATOM      5  C   UNL     1       0.973  -1.014   0.992  1.00  0.00     0.087 C 
ATOM      6  C   UNL     1       0.141   0.228   1.293  1.00  0.00     0.057 C 
ENDROOT
BRANCH   1   7
ATOM      7  N   UNL     1      -1.931   0.085  -0.293  1.00  0.00    -0.295 N 
BRANCH   7   8
ATOM      8  C   UNL     1      -2.708   0.245  -1.457  1.00  0.00     0.227 C 
ATOM      9  O   UNL     1      -3.752  -0.388  -1.651  1.00  0.00    -0.275 OA
BRANCH   8  10
ATOM     10  C   UNL     1      -2.248   1.229  -2.524  1.00  0.00     0.097 C 
ATOM     11  C   UNL     1      -3.372   1.612  -3.478  1.00  0.00     0.014 C 
ENDBRANCH   8  10
ENDBRANCH   7   8
BRANCH   7  12
ATOM     12  C   UNL     1      -2.497  -0.777   0.700  1.00  0.00     0.045 A 
ATOM     13  C   UNL     1      -2.972  -0.261   1.911  1.00  0.00     0.026 A 
ATOM     14  C   UNL     1      -2.631  -2.145   0.436  1.00  0.00     0.026 A 
ATOM     15  C   UNL     1      -3.531  -1.113   2.867  1.00  0.00     0.002 A 
ATOM     16  C   UNL     1      -3.190  -2.995   1.393  1.00  0.00     0.002 A 
ATOM     17  C   UNL     1      -3.633  -2.479   2.610  1.00  0.00     0.000 A 
ENDBRANCH   7  12
ENDBRANCH   1   7
BRANCH   1  18
ATOM     18  C   UNL     1      -0.746   2.276   0.245  1.00  0.00     0.332 C 
ATOM     19  O   UNL     1       0.186   3.073   0.233  1.00  0.00    -0.249 OA
BRANCH  18  20
ATOM     20  O   UNL     1      -2.034   2.628   0.516  1.00  0.00    -0.467 OA
ATOM     21  C   UNL     1      -2.229   4.019   0.775  1.00  0.00     0.282 C 
ENDBRANCH  18  20
ENDBRANCH   1  18
BRANCH   4  22
ATOM     22  C   UNL     1       2.705  -1.884  -0.464  1.00  0.00     0.096 C 
BRANCH  22  23
ATOM     23  C   UNL     1       4.167  -1.712  -0.874  1.00  0.00     0.138 C 
BRANCH  23  24
ATOM     24  C   UNL     1       5.056  -1.621   0.338  1.00  0.00     0.306 C 
ATOM     25  O   UNL     1       5.228  -2.537   1.133  1.00  0.00    -0.252 OA
BRANCH  24  26
ATOM     26  O   UNL     1       5.650  -0.397   0.408  1.00  0.00    -0.469 OA
ATOM     27  C   UNL     1       6.495  -0.226   1.545  1.00  0.00     0.282 C 
ENDBRANCH  24  26
ENDBRANCH  23  24
ENDBRANCH  22  23
ENDBRANCH   4  22
TORSDOF 10
