REMARK SMILES O=C(c1c(F)ccc(NS(=O)(=O)N2CC[C@@H](F)C2)c1F)c1c[nH]c2ncc(-c3cnc(C4CC4)nc3)cc12
REMARK SMILES IDX 8 1 7 2 6 3 4 4 5 5 3 6 19 7 20 8 9 9 10 11 11 12 12 13
REMARK SMILES IDX 13 14 17 15 16 16 15 17 18 18 14 19 2 20 1 21 21 22 22 23
REMARK SMILES IDX 38 24 23 25 24 26 37 27 25 29 27 30 26 31 28 32 29 33 36 34
REMARK SMILES IDX 30 35 35 36 31 37 32 38 33 39 34 40
REMARK H PARENT 9 10 23 28
REMARK Flexibility Score: inf
ROOT
ATOM      1  C   UNL     1      -3.837  -1.302  -0.222  1.00  0.00     0.086 A 
ATOM      2  C   UNL     1      -4.103  -2.395  -1.051  1.00  0.00     0.033 A 
ATOM      3  C   UNL     1      -3.049  -3.062  -1.680  1.00  0.00     0.042 A 
ATOM      4  C   UNL     1      -1.740  -2.627  -1.486  1.00  0.00     0.137 A 
ATOM      5  F   UNL     1      -0.743  -3.275  -2.104  1.00  0.00    -0.206 F 
ATOM      6  C   UNL     1      -1.477  -1.531  -0.672  1.00  0.00     0.096 A 
ATOM      7  C   UNL     1      -2.520  -0.870  -0.038  1.00  0.00     0.161 A 
ATOM      8  F   UNL     1      -2.284   0.191   0.749  1.00  0.00    -0.204 F 
ENDROOT
BRANCH   1   9
ATOM      9  N   UNL     1      -4.925  -0.565   0.366  1.00  0.00    -0.268 N 
ATOM     10  H   UNL     1      -4.583  -0.029   1.168  1.00  0.00     0.181 HD
BRANCH   9  11
ATOM     11  S   UNL     1      -5.616   0.570  -0.691  1.00  0.00     0.301 S 
ATOM     12  O   UNL     1      -5.964  -0.089  -1.927  1.00  0.00    -0.189 OA
ATOM     13  O   UNL     1      -4.777   1.743  -0.653  1.00  0.00    -0.189 OA
BRANCH  11  14
ATOM     14  N   UNL     1      -7.023   0.900   0.135  1.00  0.00    -0.182 NA
ATOM     15  F   UNL     1      -8.118   1.435   3.446  1.00  0.00    -0.246 F 
ATOM     16  C   UNL     1      -8.264   1.323   2.106  1.00  0.00     0.183 C 
ATOM     17  C   UNL     1      -8.460  -0.129   1.723  1.00  0.00     0.056 C 
ATOM     18  C   UNL     1      -6.976   1.692   1.382  1.00  0.00     0.141 C 
ATOM     19  C   UNL     1      -8.051  -0.156   0.260  1.00  0.00     0.107 C 
ENDBRANCH  11  14
ENDBRANCH   9  11
ENDBRANCH   1   9
BRANCH   6  20
ATOM     20  C   UNL     1      -0.104  -1.083  -0.463  1.00  0.00     0.201 C 
ATOM     21  O   UNL     1       0.454  -1.415   0.579  1.00  0.00    -0.288 OA
BRANCH  20  22
ATOM     22  C   UNL     1       0.529  -0.265  -1.493  1.00  0.00     0.050 A 
ATOM     23  C   UNL     1      -0.071   0.250  -2.635  1.00  0.00     0.097 A 
ATOM     24  C   UNL     1       1.892   0.179  -1.517  1.00  0.00     0.030 A 
ATOM     25  N   UNL     1       0.869   0.969  -3.331  1.00  0.00    -0.345 N 
ATOM     26  C   UNL     1       2.062   0.934  -2.670  1.00  0.00     0.138 A 
ATOM     27  C   UNL     1       3.021   0.023  -0.688  1.00  0.00     0.023 A 
ATOM     28  H   UNL     1       0.727   1.464  -4.200  1.00  0.00     0.167 HD
ATOM     29  N   UNL     1       3.181   1.542  -3.096  1.00  0.00    -0.238 NA
ATOM     30  C   UNL     1       4.233   0.626  -1.062  1.00  0.00     0.004 A 
ATOM     31  C   UNL     1       4.230   1.358  -2.256  1.00  0.00     0.122 A 
BRANCH  30  32
ATOM     32  C   UNL     1       5.440   0.496  -0.242  1.00  0.00     0.020 A 
ATOM     33  C   UNL     1       5.454   0.683   1.127  1.00  0.00     0.123 A 
ATOM     34  C   UNL     1       6.681   0.177  -0.759  1.00  0.00     0.123 A 
ATOM     35  N   UNL     1       6.553   0.579   1.906  1.00  0.00    -0.240 NA
ATOM     36  N   UNL     1       7.813   0.062  -0.030  1.00  0.00    -0.240 NA
ATOM     37  C   UNL     1       7.716   0.272   1.298  1.00  0.00     0.131 A 
BRANCH  37  38
ATOM     38  C   UNL     1       8.958   0.143   2.144  1.00  0.00     0.058 C 
ATOM     39  C   UNL     1       9.449   1.321   2.956  1.00  0.00     0.012 C 
ATOM     40  C   UNL     1      10.228   0.869   1.757  1.00  0.00     0.012 C 
ENDBRANCH  37  38
ENDBRANCH  30  32
ENDBRANCH  20  22
ENDBRANCH   6  20
TORSDOF 7
