REMARK SMILES Cc1nc2c(F)cc(-c3nc(Nc4ccc5c(n4)CCN(CCN(C)C)C5)ncc3F)cc2n1C1CC1
REMARK SMILES IDX 21 1 20 2 19 3 17 4 16 5 27 6 15 7 14 8 13 9 18 10 22 11
REMARK SMILES IDX 23 12 24 13 25 14 26 15 12 16 11 18 28 19 10 20 29 21 9 22
REMARK SMILES IDX 30 23 31 24 8 25 7 26 32 27 5 28 33 29 6 30 4 31 34 32 3 33
REMARK SMILES IDX 2 34 1 35 35 36 36 37 37 38
REMARK H PARENT 12 17
REMARK Flexibility Score: inf
ROOT
ATOM      1  N   UNL     1       5.797   0.348   0.591  1.00  0.00    -0.297 NA
ATOM      2  C   UNL     1       5.115  -0.946   0.765  1.00  0.00     0.091 C 
ATOM      3  C   UNL     1       3.594  -0.758   0.793  1.00  0.00     0.072 C 
ATOM      4  C   UNL     1       3.101   0.061  -0.366  1.00  0.00     0.049 A 
ATOM      5  C   UNL     1       3.978   0.901  -1.044  1.00  0.00    -0.012 A 
ATOM      6  C   UNL     1       5.451   0.918  -0.728  1.00  0.00     0.122 C 
ATOM      7  C   UNL     1       3.461   1.658  -2.091  1.00  0.00     0.011 A 
ATOM      8  C   UNL     1       2.107   1.564  -2.404  1.00  0.00     0.047 A 
ATOM      9  C   UNL     1       1.284   0.705  -1.676  1.00  0.00     0.132 A 
ATOM     10  N   UNL     1       1.779  -0.034  -0.664  1.00  0.00    -0.235 NA
ENDROOT
BRANCH   1  11
ATOM     11  C   UNL     1       7.269   0.230   0.694  1.00  0.00     0.100 C 
BRANCH  11  12
ATOM     12  C   UNL     1       7.791  -0.187   2.095  1.00  0.00     0.099 C 
BRANCH  12  13
ATOM     13  N   UNL     1       9.253  -0.158   2.305  1.00  0.00    -0.308 NA
ATOM     14  C   UNL     1       9.980  -0.985   1.345  1.00  0.00     0.105 C 
ATOM     15  C   UNL     1       9.786   1.201   2.341  1.00  0.00     0.105 C 
ENDBRANCH  12  13
ENDBRANCH  11  12
ENDBRANCH   1  11
BRANCH   9  16
ATOM     16  N   UNL     1      -0.068   0.637  -2.047  1.00  0.00    -0.309 N 
ATOM     17  H   UNL     1      -0.503   1.545  -2.100  1.00  0.00     0.171 HD
BRANCH  16  18
ATOM     18  C   UNL     1      -1.030  -0.269  -1.612  1.00  0.00     0.229 A 
ATOM     19  N   UNL     1      -0.722  -1.539  -1.317  1.00  0.00    -0.218 NA
ATOM     20  N   UNL     1      -2.291   0.203  -1.604  1.00  0.00    -0.210 NA
ATOM     21  C   UNL     1      -1.733  -2.352  -0.960  1.00  0.00     0.156 A 
ATOM     22  C   UNL     1      -3.297  -0.639  -1.250  1.00  0.00     0.112 A 
ATOM     23  C   UNL     1      -3.043  -1.953  -0.911  1.00  0.00     0.167 A 
ATOM     24  F   UNL     1      -4.004  -2.825  -0.579  1.00  0.00    -0.203 F 
BRANCH  22  25
ATOM     25  C   UNL     1      -4.657  -0.051  -1.297  1.00  0.00     0.008 A 
ATOM     26  C   UNL     1      -4.956   0.956  -2.237  1.00  0.00     0.052 A 
ATOM     27  C   UNL     1      -5.682  -0.471  -0.420  1.00  0.00     0.039 A 
ATOM     28  C   UNL     1      -6.228   1.530  -2.330  1.00  0.00     0.151 A 
ATOM     29  C   UNL     1      -6.953   0.122  -0.526  1.00  0.00     0.072 A 
ATOM     30  F   UNL     1      -6.451   2.475  -3.254  1.00  0.00    -0.205 F 
ATOM     31  C   UNL     1      -7.249   1.106  -1.467  1.00  0.00     0.124 A 
ATOM     32  N   UNL     1      -8.135  -0.043   0.149  1.00  0.00    -0.325 N 
ATOM     33  N   UNL     1      -8.569   1.495  -1.375  1.00  0.00    -0.230 NA
ATOM     34  C   UNL     1      -9.095   0.763  -0.411  1.00  0.00     0.107 A 
ATOM     35  C   UNL     1     -10.513   0.790   0.020  1.00  0.00     0.088 C 
BRANCH  32  36
ATOM     36  C   UNL     1      -8.356  -1.018   1.241  1.00  0.00     0.089 C 
ATOM     37  C   UNL     1      -7.477  -1.068   2.470  1.00  0.00     0.027 C 
ATOM     38  C   UNL     1      -8.897  -0.612   2.594  1.00  0.00     0.027 C 
ENDBRANCH  32  36
ENDBRANCH  22  25
ENDBRANCH  16  18
ENDBRANCH   9  16
TORSDOF 7
