REMARK SMILES Cn1c(=O)cc(N2CCC[C@@H](N)C2)n(Cc2ccccc2C#N)c1=O
REMARK SMILES IDX 1 1 2 2 3 3 4 4 5 5 6 6 14 7 24 8 25 9 15 10 16 11 17 12
REMARK SMILES IDX 21 13 18 14 20 15 19 16 22 17 23 18 7 19 8 20 13 21 9 22
REMARK SMILES IDX 11 23 10 24 12 25
REMARK H PARENT 12 26 12 27
REMARK Flexibility Score: inf
ROOT
ATOM      1  C   UNL     1      -0.480   5.041   0.991  1.00  0.00     0.158 C 
ATOM      2  N   UNL     1      -0.105   3.683   0.640  1.00  0.00    -0.263 N 
ATOM      3  C   UNL     1       1.205   3.290   0.825  1.00  0.00     0.258 C 
ATOM      4  O   UNL     1       2.097   4.005   1.289  1.00  0.00    -0.269 OA
ATOM      5  C   UNL     1       1.526   1.914   0.434  1.00  0.00     0.117 C 
ATOM      6  C   UNL     1       0.604   1.101  -0.104  1.00  0.00     0.118 C 
ATOM      7  N   UNL     1      -0.686   1.585  -0.297  1.00  0.00    -0.275 N 
ATOM      8  C   UNL     1      -1.077   2.876   0.062  1.00  0.00     0.332 C 
ATOM      9  O   UNL     1      -2.227   3.292  -0.112  1.00  0.00    -0.247 OA
ENDROOT
BRANCH   7  10
ATOM     10  C   UNL     1      -1.690   0.732  -0.954  1.00  0.00     0.166 C 
BRANCH  10  11
ATOM     11  C   UNL     1      -2.312  -0.322  -0.050  1.00  0.00    -0.010 A 
ATOM     12  C   UNL     1      -2.685   0.008   1.272  1.00  0.00     0.007 A 
ATOM     13  C   UNL     1      -2.594  -1.626  -0.521  1.00  0.00     0.057 A 
ATOM     14  C   UNL     1      -3.264  -0.945   2.116  1.00  0.00     0.000 A 
ATOM     15  C   UNL     1      -3.181  -2.571   0.336  1.00  0.00     0.020 A 
ATOM     16  C   UNL     1      -3.505  -2.236   1.651  1.00  0.00     0.001 A 
BRANCH  13  17
ATOM     17  C   UNL     1      -2.273  -2.042  -1.856  1.00  0.00     0.099 C 
ATOM     18  N   UNL     1      -2.001  -2.402  -2.924  1.00  0.00    -0.192 NA
ENDBRANCH  13  17
ENDBRANCH  10  11
ENDBRANCH   7  10
BRANCH   6  19
ATOM     19  N   UNL     1       0.949  -0.210  -0.462  1.00  0.00    -0.356 N 
ATOM     20  C   UNL     1       1.877  -0.421  -1.595  1.00  0.00     0.118 C 
ATOM     21  C   UNL     1       1.001  -1.249   0.598  1.00  0.00     0.136 C 
ATOM     22  C   UNL     1       2.024  -1.901  -1.912  1.00  0.00     0.023 C 
ATOM     23  C   UNL     1       2.334  -2.031   0.625  1.00  0.00     0.070 C 
ATOM     24  C   UNL     1       2.581  -2.702  -0.733  1.00  0.00     0.022 C 
BRANCH  23  25
ATOM     25  N   UNL     1       3.479  -1.177   0.985  1.00  0.00    -0.326 NA
ATOM     26  H   UNL     1       3.322  -0.760   1.903  1.00  0.00     0.119 HD
ATOM     27  H   UNL     1       4.332  -1.738   1.061  1.00  0.00     0.119 HD
ENDBRANCH  23  25
ENDBRANCH   6  19
TORSDOF 5
