REMARK SMILES CC[C@]12CCCN3CCc4c(n(c5ccccc45)[C@@](O)(C(=O)OC)C1)[C@@H]32
REMARK SMILES IDX 3 1 4 2 5 3 6 4 7 5 8 6 9 7 10 8 11 9 12 10 13 11 14 12
REMARK SMILES IDX 15 13 16 14 17 15 18 16 19 17 25 18 26 19 2 20 1 21 20 22
REMARK SMILES IDX 21 24 22 25 23 26 24 27
REMARK H PARENT 20 23
REMARK Flexibility Score: inf
ROOT
ATOM      1  C   UNL     1      -1.656   0.481   0.257  1.00  0.00    -0.004 C 
ATOM      2  C   UNL     1      -2.975  -0.252   0.638  1.00  0.00     0.010 C 
ATOM      3  C   UNL     1      -3.754  -0.769  -0.576  1.00  0.00     0.016 C 
ATOM      4  C   UNL     1      -2.855  -1.350  -1.673  1.00  0.00     0.085 C 
ATOM      5  N   UNL     1      -1.541  -1.681  -1.134  1.00  0.00    -0.294 NA
ATOM      6  C   UNL     1      -0.715  -2.457  -2.094  1.00  0.00     0.090 C 
ATOM      7  C   UNL     1       0.612  -2.986  -1.474  1.00  0.00     0.053 C 
ATOM      8  C   UNL     1       1.205  -1.985  -0.541  1.00  0.00    -0.016 A 
ATOM      9  C   UNL     1       0.496  -0.871  -0.160  1.00  0.00     0.043 A 
ATOM     10  N   UNL     1       1.212  -0.198   0.790  1.00  0.00    -0.305 N 
ATOM     11  C   UNL     1       2.455  -0.787   0.932  1.00  0.00     0.052 A 
ATOM     12  C   UNL     1       3.568  -0.436   1.713  1.00  0.00     0.027 A 
ATOM     13  C   UNL     1       4.695  -1.262   1.671  1.00  0.00     0.002 A 
ATOM     14  C   UNL     1       4.716  -2.406   0.879  1.00  0.00     0.001 A 
ATOM     15  C   UNL     1       3.607  -2.753   0.102  1.00  0.00     0.010 A 
ATOM     16  C   UNL     1       2.461  -1.932   0.118  1.00  0.00     0.003 A 
ATOM     17  C   UNL     1       0.643   0.946   1.504  1.00  0.00     0.243 C 
ATOM     18  C   UNL     1      -0.892   0.789   1.587  1.00  0.00     0.080 C 
ATOM     19  C   UNL     1      -0.827  -0.450  -0.707  1.00  0.00     0.110 C 
ENDROOT
BRANCH   1  20
ATOM     20  C   UNL     1      -1.998   1.798  -0.522  1.00  0.00     0.006 C 
ATOM     21  C   UNL     1      -2.845   2.838   0.204  1.00  0.00     0.004 C 
ENDBRANCH   1  20
BRANCH  17  22
ATOM     22  O   UNL     1       1.099   0.917   2.877  1.00  0.00    -0.361 OA
ATOM     23  H   UNL     1       0.940   1.812   3.231  1.00  0.00     0.214 HD
ENDBRANCH  17  22
BRANCH  17  24
ATOM     24  C   UNL     1       1.073   2.297   0.911  1.00  0.00     0.359 C 
ATOM     25  O   UNL     1       1.127   3.321   1.593  1.00  0.00    -0.246 OA
BRANCH  24  26
ATOM     26  O   UNL     1       1.355   2.249  -0.418  1.00  0.00    -0.465 OA
ATOM     27  C   UNL     1       1.802   3.485  -0.975  1.00  0.00     0.282 C 
ENDBRANCH  24  26
ENDBRANCH  17  24
TORSDOF 4
