REMARK SMILES CNC(=O)c1c(C)oc2cc(Oc3ncnc4cc(OC)c(OC)cc34)ccc12
REMARK SMILES IDX 12 1 11 2 5 3 6 4 29 5 7 6 8 7 9 8 28 9 10 10 27 11 3 12
REMARK SMILES IDX 1 13 2 14 4 16 13 17 14 18 26 19 15 20 17 21 25 22 16 23
REMARK SMILES IDX 18 24 22 25 19 26 23 27 24 28 20 29 21 30
REMARK H PARENT 2 15
REMARK Flexibility Score: inf
ROOT
ATOM      1  O   UNL     1      -0.881   0.538   0.449  1.00  0.00    -0.438 OA
ENDROOT
BRANCH   1   2
ATOM      2  C   UNL     1       0.474   0.446   0.230  1.00  0.00     0.133 A 
ATOM      3  C   UNL     1       4.658   0.377  -0.015  1.00  0.00     0.088 A 
ATOM      4  C   UNL     1       4.859   0.549   1.349  1.00  0.00     0.115 A 
ATOM      5  C   UNL     1       3.235   0.390  -0.196  1.00  0.00     0.034 A 
ATOM      6  C   UNL     1       6.053   0.700   2.210  1.00  0.00     0.088 C 
ATOM      7  O   UNL     1       3.666   0.617   2.004  1.00  0.00    -0.460 OA
ATOM      8  C   UNL     1       2.684   0.524   1.071  1.00  0.00     0.138 A 
ATOM      9  C   UNL     1       2.360   0.294  -1.297  1.00  0.00     0.017 A 
ATOM     10  C   UNL     1       1.318   0.566   1.337  1.00  0.00     0.094 A 
ATOM     11  C   UNL     1       0.977   0.333  -1.069  1.00  0.00     0.048 A 
BRANCH   3  12
ATOM     12  C   UNL     1       5.663   0.252  -1.060  1.00  0.00     0.255 C 
ATOM     13  C   UNL     1       7.872  -0.632  -1.639  1.00  0.00     0.143 C 
ATOM     14  N   UNL     1       6.853  -0.325  -0.668  1.00  0.00    -0.355 N 
ATOM     15  H   UNL     1       6.859  -0.842   0.200  1.00  0.00     0.163 HD
ATOM     16  O   UNL     1       5.446   0.594  -2.219  1.00  0.00    -0.269 OA
ENDBRANCH   3  12
ENDBRANCH   1   2
BRANCH   1  17
ATOM     17  C   UNL     1      -1.637  -0.610   0.205  1.00  0.00     0.230 A 
ATOM     18  N   UNL     1      -1.011  -1.801   0.141  1.00  0.00    -0.201 NA
ATOM     19  C   UNL     1      -3.020  -0.441   0.085  1.00  0.00     0.067 A 
ATOM     20  C   UNL     1      -1.805  -2.851  -0.068  1.00  0.00     0.226 A 
ATOM     21  C   UNL     1      -3.733  -1.621  -0.130  1.00  0.00     0.081 A 
ATOM     22  C   UNL     1      -3.699   0.800   0.164  1.00  0.00     0.066 A 
ATOM     23  N   UNL     1      -3.137  -2.819  -0.210  1.00  0.00    -0.236 NA
ATOM     24  C   UNL     1      -5.113  -1.547  -0.265  1.00  0.00     0.079 A 
ATOM     25  C   UNL     1      -5.086   0.860   0.027  1.00  0.00     0.161 A 
ATOM     26  C   UNL     1      -5.802  -0.329  -0.191  1.00  0.00     0.162 A 
BRANCH  25  27
ATOM     27  O   UNL     1      -5.826   2.012   0.087  1.00  0.00    -0.493 OA
ATOM     28  C   UNL     1      -5.134   3.234   0.304  1.00  0.00     0.278 C 
ENDBRANCH  25  27
BRANCH  26  29
ATOM     29  O   UNL     1      -7.163  -0.199  -0.317  1.00  0.00    -0.493 OA
ATOM     30  C   UNL     1      -7.923  -1.379  -0.537  1.00  0.00     0.278 C 
ENDBRANCH  26  29
ENDBRANCH   1  17
TORSDOF 5
