REMARK SMILES CC(CCc1ccccc1)NCC(O)c1ccc(O)c(C(N)=O)c1
REMARK SMILES IDX 11 1 2 3 1 4 3 5 4 6 5 7 6 8 10 9 7 10 9 11 8 12 12 13 13 14
REMARK SMILES IDX 14 15 15 17 16 18 24 19 17 20 20 21 18 22 21 23 22 24 23 25
REMARK SMILES IDX 19 28
REMARK H PARENT 11 2 14 16 22 26 22 27 19 29
REMARK Flexibility Score: inf
ROOT
ATOM      1  N   UNL     1       0.322  -0.206   0.746  1.00  0.00    -0.311 NA
ATOM      2  H   UNL     1      -0.249   0.099  -0.043  1.00  0.00     0.123 HD
ENDROOT
BRANCH   1   3
ATOM      3  C   UNL     1       1.334   0.806   1.079  1.00  0.00     0.051 C 
ATOM      4  C   UNL     1       1.759   1.526  -0.203  1.00  0.00     0.024 C 
BRANCH   3   5
ATOM      5  C   UNL     1       2.532   0.220   1.859  1.00  0.00     0.023 C 
BRANCH   5   6
ATOM      6  C   UNL     1       3.228  -1.010   1.256  1.00  0.00     0.037 C 
BRANCH   6   7
ATOM      7  C   UNL     1       4.138  -0.741   0.083  1.00  0.00    -0.048 A 
ATOM      8  C   UNL     1       5.261   0.087   0.218  1.00  0.00     0.004 A 
ATOM      9  C   UNL     1       3.889  -1.345  -1.158  1.00  0.00     0.004 A 
ATOM     10  C   UNL     1       6.105   0.321  -0.869  1.00  0.00     0.000 A 
ATOM     11  C   UNL     1       4.734  -1.110  -2.244  1.00  0.00     0.000 A 
ATOM     12  C   UNL     1       5.841  -0.276  -2.100  1.00  0.00     0.000 A 
ENDBRANCH   6   7
ENDBRANCH   5   6
ENDBRANCH   3   5
ENDBRANCH   1   3
BRANCH   1  13
ATOM     13  C   UNL     1      -0.537  -0.600   1.879  1.00  0.00     0.117 C 
BRANCH  13  14
ATOM     14  C   UNL     1      -1.961   0.026   1.870  1.00  0.00     0.158 C 
BRANCH  14  15
ATOM     15  O   UNL     1      -1.828   1.444   2.031  1.00  0.00    -0.387 OA
ATOM     16  H   UNL     1      -1.335   1.758   1.252  1.00  0.00     0.211 HD
ENDBRANCH  14  15
BRANCH  14  17
ATOM     17  C   UNL     1      -2.848  -0.262   0.666  1.00  0.00    -0.017 A 
ATOM     18  C   UNL     1      -2.672  -1.388  -0.152  1.00  0.00     0.010 A 
ATOM     19  C   UNL     1      -3.930   0.594   0.381  1.00  0.00     0.024 A 
ATOM     20  C   UNL     1      -3.520  -1.635  -1.238  1.00  0.00     0.047 A 
ATOM     21  C   UNL     1      -4.784   0.352  -0.708  1.00  0.00     0.081 A 
ATOM     22  C   UNL     1      -4.572  -0.765  -1.517  1.00  0.00     0.128 A 
BRANCH  21  23
ATOM     23  C   UNL     1      -5.874   1.315  -0.991  1.00  0.00     0.252 C 
ATOM     24  N   UNL     1      -6.659   1.657   0.078  1.00  0.00    -0.365 N 
ATOM     25  O   UNL     1      -6.062   1.798  -2.098  1.00  0.00    -0.269 OA
ATOM     26  H   UNL     1      -6.657   1.114   0.930  1.00  0.00     0.159 HD
ATOM     27  H   UNL     1      -7.477   2.214  -0.131  1.00  0.00     0.159 HD
ENDBRANCH  21  23
BRANCH  22  28
ATOM     28  O   UNL     1      -5.416  -1.043  -2.553  1.00  0.00    -0.507 OA
ATOM     29  H   UNL     1      -5.014  -1.710  -3.131  1.00  0.00     0.293 HD
ENDBRANCH  22  28
ENDBRANCH  14  17
ENDBRANCH  13  14
ENDBRANCH   1  13
TORSDOF 10
