REMARK SMILES CNC(=O)c1cc(Oc2ccc(NC(=O)Nc3ccc(Cl)c(C(F)(F)F)c3)c(F)c2)ccn1
REMARK SMILES IDX 9 1 30 2 28 3 29 4 12 5 11 6 10 7 8 8 7 9 5 10 6 11 33 12
REMARK SMILES IDX 32 13 31 14 3 15 1 16 2 17 4 19 13 20 14 21 15 23 16 24
REMARK SMILES IDX 17 26 18 27 27 28 19 29 22 30 20 31 21 32 23 33 24 34 25 35
REMARK SMILES IDX 26 36
REMARK H PARENT 2 18 13 22 16 25
REMARK Flexibility Score: inf
ROOT
ATOM      1  C   UNL     1      -2.201   1.241  -1.009  1.00  0.00     0.130 A 
ATOM      2  C   UNL     1      -1.434   2.311  -1.457  1.00  0.00     0.088 A 
ATOM      3  C   UNL     1      -0.048   2.232  -1.367  1.00  0.00     0.150 A 
ATOM      4  F   UNL     1       0.689   3.275  -1.784  1.00  0.00    -0.205 F 
ATOM      5  C   UNL     1       0.597   1.097  -0.855  1.00  0.00     0.079 A 
ATOM      6  C   UNL     1      -0.185   0.024  -0.426  1.00  0.00     0.033 A 
ATOM      7  C   UNL     1      -1.581   0.091  -0.512  1.00  0.00     0.049 A 
ENDROOT
BRANCH   1   8
ATOM      8  O   UNL     1      -3.566   1.344  -1.148  1.00  0.00    -0.457 OA
BRANCH   8   9
ATOM      9  C   UNL     1      -4.342   1.023  -0.058  1.00  0.00     0.131 A 
ATOM     10  C   UNL     1      -6.319  -0.007   0.772  1.00  0.00     0.131 A 
ATOM     11  C   UNL     1      -5.500   0.294  -0.307  1.00  0.00     0.081 A 
ATOM     12  N   UNL     1      -6.052   0.385   2.044  1.00  0.00    -0.251 NA
ATOM     13  C   UNL     1      -4.936   1.114   2.243  1.00  0.00     0.116 A 
ATOM     14  C   UNL     1      -4.056   1.461   1.233  1.00  0.00     0.067 A 
BRANCH  10  15
ATOM     15  C   UNL     1      -7.578  -0.795   0.571  1.00  0.00     0.269 C 
ATOM     16  C   UNL     1      -8.618  -2.727  -0.524  1.00  0.00     0.143 C 
ATOM     17  N   UNL     1      -7.502  -1.831  -0.351  1.00  0.00    -0.354 N 
ATOM     18  H   UNL     1      -6.588  -2.161  -0.632  1.00  0.00     0.163 HD
ATOM     19  O   UNL     1      -8.599  -0.536   1.199  1.00  0.00    -0.268 OA
ENDBRANCH  10  15
ENDBRANCH   8   9
ENDBRANCH   1   8
BRANCH   5  20
ATOM     20  N   UNL     1       2.008   1.132  -0.801  1.00  0.00    -0.305 N 
ATOM     21  C   UNL     1       2.868   0.101  -0.461  1.00  0.00     0.323 C 
ATOM     22  H   UNL     1       2.421   1.976  -1.175  1.00  0.00     0.171 HD
ATOM     23  O   UNL     1       2.517  -1.045  -0.217  1.00  0.00    -0.248 OA
ATOM     24  N   UNL     1       4.179   0.557  -0.432  1.00  0.00    -0.308 N 
ATOM     25  H   UNL     1       4.296   1.558  -0.466  1.00  0.00     0.171 HD
BRANCH  24  26
ATOM     26  C   UNL     1       5.346  -0.201  -0.204  1.00  0.00     0.043 A 
ATOM     27  C   UNL     1       5.370  -1.591  -0.112  1.00  0.00     0.028 A 
ATOM     28  C   UNL     1       6.552   0.503  -0.081  1.00  0.00     0.040 A 
ATOM     29  C   UNL     1       6.576  -2.265   0.110  1.00  0.00     0.023 A 
ATOM     30  C   UNL     1       7.777  -0.162   0.143  1.00  0.00     0.076 A 
ATOM     31  C   UNL     1       7.772  -1.557   0.238  1.00  0.00     0.053 A 
ATOM     32  Cl  UNL     1       9.214  -2.464   0.510  1.00  0.00    -0.084 Cl
BRANCH  30  33
ATOM     33  C   UNL     1       9.049   0.630   0.274  1.00  0.00     0.417 C 
ATOM     34  F   UNL     1       9.972   0.321  -0.677  1.00  0.00    -0.166 F 
ATOM     35  F   UNL     1       9.661   0.468   1.478  1.00  0.00    -0.166 F 
ATOM     36  F   UNL     1       8.847   1.976   0.153  1.00  0.00    -0.166 F 
ENDBRANCH  30  33
ENDBRANCH  24  26
ENDBRANCH   5  20
TORSDOF 6
