REMARK SMILES OCCOCCN1CCN(C2=Nc3ccccc3Sc3ccccc32)CC1
REMARK SMILES IDX 4 1 3 2 2 3 1 4 5 6 6 7 7 8 8 9 27 10 9 11 26 12 10 13 11 14
REMARK SMILES IDX 12 15 25 16 13 17 20 18 24 19 14 20 18 21 19 22 21 23 23 24
REMARK SMILES IDX 15 25 17 26 22 27 16 28
REMARK H PARENT 1 5
REMARK Flexibility Score: inf
ROOT
ATOM      1  O   UNL     1       5.378  -0.239   0.398  1.00  0.00    -0.378 OA
ENDROOT
BRANCH   1   2
ATOM      2  C   UNL     1       6.410  -1.049   0.962  1.00  0.00     0.188 C 
BRANCH   2   3
ATOM      3  C   UNL     1       6.979  -0.443   2.243  1.00  0.00     0.184 C 
BRANCH   3   4
ATOM      4  O   UNL     1       8.039  -1.253   2.737  1.00  0.00    -0.394 OA
ATOM      5  H   UNL     1       8.389  -0.808   3.528  1.00  0.00     0.210 HD
ENDBRANCH   3   4
ENDBRANCH   2   3
ENDBRANCH   1   2
BRANCH   1   6
ATOM      6  C   UNL     1       4.102  -0.461   1.007  1.00  0.00     0.175 C 
BRANCH   6   7
ATOM      7  C   UNL     1       3.072   0.459   0.331  1.00  0.00     0.113 C 
BRANCH   7   8
ATOM      8  N   UNL     1       1.735   0.401   0.944  1.00  0.00    -0.298 NA
ATOM      9  C   UNL     1       0.883   1.525   0.478  1.00  0.00     0.106 C 
ATOM     10  C   UNL     1       1.017  -0.870   0.661  1.00  0.00     0.106 C 
ATOM     11  C   UNL     1       0.378   1.406  -0.980  1.00  0.00     0.133 C 
ATOM     12  C   UNL     1       0.503  -1.022  -0.791  1.00  0.00     0.133 C 
ATOM     13  N   UNL     1      -0.346   0.129  -1.175  1.00  0.00    -0.354 N 
ATOM     14  C   UNL     1      -1.722   0.070  -0.897  1.00  0.00     0.137 C 
ATOM     15  N   UNL     1      -2.176  -0.919  -0.173  1.00  0.00    -0.230 NA
ATOM     16  C   UNL     1      -2.589   1.139  -1.495  1.00  0.00     0.031 A 
ATOM     17  C   UNL     1      -3.524  -1.103   0.178  1.00  0.00     0.079 A 
ATOM     18  C   UNL     1      -3.479   1.897  -0.723  1.00  0.00     0.023 A 
ATOM     19  C   UNL     1      -2.431   1.414  -2.863  1.00  0.00     0.013 A 
ATOM     20  C   UNL     1      -4.047  -2.390   0.003  1.00  0.00     0.029 A 
ATOM     21  C   UNL     1      -4.332  -0.127   0.791  1.00  0.00     0.038 A 
ATOM     22  S   UNL     1      -3.773   1.559   1.003  1.00  0.00    -0.087 SA
ATOM     23  C   UNL     1      -4.194   2.937  -1.332  1.00  0.00     0.016 A 
ATOM     24  C   UNL     1      -3.155   2.446  -3.459  1.00  0.00     0.001 A 
ATOM     25  C   UNL     1      -5.346  -2.706   0.407  1.00  0.00     0.002 A 
ATOM     26  C   UNL     1      -5.635  -0.449   1.202  1.00  0.00     0.018 A 
ATOM     27  C   UNL     1      -4.032   3.210  -2.693  1.00  0.00     0.001 A 
ATOM     28  C   UNL     1      -6.140  -1.734   1.009  1.00  0.00     0.001 A 
ENDBRANCH   7   8
ENDBRANCH   6   7
ENDBRANCH   1   6
TORSDOF 6
