REMARK SMILES N#Cc1c(N2C[C@@H]3NCCO[C@H]3C2)c(F)cc2c(=O)c(C(=O)O)cn(C3CC3)c12
REMARK SMILES IDX 3 1 4 2 14 3 15 4 16 5 17 6 18 7 19 8 20 9 24 10 25 11 29 12
REMARK SMILES IDX 2 13 1 14 5 15 6 16 13 17 7 18 12 19 8 20 11 21 9 22 10 24
REMARK SMILES IDX 26 25 27 26 28 27 21 28 22 29 23 30
REMARK H PARENT 8 23 23 31
REMARK Flexibility Score: inf
ROOT
ATOM      1  C   UNL     1      -0.787   0.518   0.274  1.00  0.00     0.103 A 
ATOM      2  C   UNL     1       0.477  -0.126   0.395  1.00  0.00     0.093 A 
ATOM      3  C   UNL     1       0.496  -1.510   0.632  1.00  0.00     0.148 A 
ATOM      4  F   UNL     1       1.665  -2.163   0.714  1.00  0.00    -0.205 F 
ATOM      5  C   UNL     1      -0.668  -2.238   0.793  1.00  0.00     0.056 A 
ATOM      6  C   UNL     1      -1.903  -1.593   0.682  1.00  0.00     0.051 A 
ATOM      7  C   UNL     1      -3.128  -2.408   0.903  1.00  0.00     0.204 C 
ATOM      8  O   UNL     1      -3.029  -3.622   1.036  1.00  0.00    -0.288 OA
ATOM      9  C   UNL     1      -4.430  -1.709   0.946  1.00  0.00     0.124 C 
ATOM     10  C   UNL     1      -4.420  -0.418   0.586  1.00  0.00     0.106 C 
ATOM     11  N   UNL     1      -3.316   0.327   0.203  1.00  0.00    -0.342 N 
ATOM     12  C   UNL     1      -2.001  -0.214   0.374  1.00  0.00     0.073 A 
ENDROOT
BRANCH   1  13
ATOM     13  C   UNL     1      -0.771   1.951   0.134  1.00  0.00     0.104 C 
ATOM     14  N   UNL     1      -0.765   3.109   0.030  1.00  0.00    -0.192 NA
ENDBRANCH   1  13
BRANCH   2  15
ATOM     15  N   UNL     1       1.661   0.630   0.256  1.00  0.00    -0.364 N 
ATOM     16  C   UNL     1       2.297   0.471  -1.080  1.00  0.00     0.138 C 
ATOM     17  C   UNL     1       2.713   0.437   1.295  1.00  0.00     0.150 C 
ATOM     18  C   UNL     1       3.782   0.744  -0.808  1.00  0.00     0.104 C 
ATOM     19  C   UNL     1       3.972   0.017   0.529  1.00  0.00     0.156 C 
ATOM     20  N   UNL     1       4.752   0.300  -1.825  1.00  0.00    -0.308 NA
ATOM     21  O   UNL     1       5.195   0.395   1.163  1.00  0.00    -0.373 OA
ATOM     22  C   UNL     1       6.019  -0.082  -1.161  1.00  0.00     0.110 C 
ATOM     23  H   UNL     1       4.926   1.076  -2.466  1.00  0.00     0.123 HD
ATOM     24  C   UNL     1       6.254   0.599   0.208  1.00  0.00     0.176 C 
ENDBRANCH   2  15
BRANCH  11  25
ATOM     25  C   UNL     1      -3.593   1.617  -0.466  1.00  0.00     0.087 C 
ATOM     26  C   UNL     1      -3.201   1.862  -1.905  1.00  0.00     0.027 C 
ATOM     27  C   UNL     1      -4.646   1.750  -1.546  1.00  0.00     0.027 C 
ENDBRANCH  11  25
BRANCH   9  28
ATOM     28  C   UNL     1      -5.675  -2.384   1.352  1.00  0.00     0.341 C 
ATOM     29  O   UNL     1      -5.778  -3.431   1.962  1.00  0.00    -0.246 OA
BRANCH  28  30
ATOM     30  O   UNL     1      -6.787  -1.712   0.989  1.00  0.00    -0.477 OA
ATOM     31  H   UNL     1      -7.511  -2.287   1.317  1.00  0.00     0.297 HD
ENDBRANCH  28  30
ENDBRANCH   9  28
TORSDOF 5
