REMARK SMILES Cc1ncccc1-c1cnc(NCc2c(F)ccc3c2CCO3)n2cnnc12
REMARK SMILES IDX 8 1 9 2 10 3 11 4 12 5 24 6 25 7 26 8 27 9 28 10 7 12 1 13
REMARK SMILES IDX 2 14 3 15 4 16 6 17 5 18 13 19 14 20 20 21 15 22 21 23 19 24
REMARK SMILES IDX 17 25 16 26 22 27 23 28 18 29
REMARK H PARENT 12 11
REMARK Flexibility Score: inf
ROOT
ATOM      1  C   UNL     1      -2.895  -0.310  -0.284  1.00  0.00     0.047 C 
ATOM      2  C   UNL     1      -2.346   0.632  -1.082  1.00  0.00     0.127 C 
ATOM      3  N   UNL     1      -0.994   0.875  -1.237  1.00  0.00    -0.222 NA
ATOM      4  C   UNL     1      -0.162   0.142  -0.547  1.00  0.00     0.210 C 
ATOM      5  N   UNL     1       1.193   0.367  -0.667  1.00  0.00    -0.351 N 
ATOM      6  N   UNL     1      -0.653  -0.874   0.280  1.00  0.00    -0.251 N 
ATOM      7  C   UNL     1      -0.010  -1.816   1.027  1.00  0.00     0.233 A 
ATOM      8  N   UNL     1      -0.889  -2.558   1.661  1.00  0.00    -0.138 NA
ATOM      9  N   UNL     1      -2.145  -2.121   1.295  1.00  0.00    -0.130 NA
ATOM     10  C   UNL     1      -1.993  -1.124   0.448  1.00  0.00     0.172 A 
ATOM     11  H   UNL     1       1.318   0.993  -1.465  1.00  0.00     0.163 HD
ENDROOT
BRANCH   1  12
ATOM     12  C   UNL     1      -4.363  -0.425  -0.233  1.00  0.00     0.008 A 
ATOM     13  C   UNL     1      -4.499   0.697   2.041  1.00  0.00     0.067 C 
ATOM     14  C   UNL     1      -5.129   0.051   0.841  1.00  0.00     0.045 A 
ATOM     15  N   UNL     1      -6.486  -0.037   0.868  1.00  0.00    -0.261 NA
ATOM     16  C   UNL     1      -7.099  -0.625  -0.181  1.00  0.00     0.111 A 
ATOM     17  C   UNL     1      -5.041  -1.025  -1.303  1.00  0.00     0.012 A 
ATOM     18  C   UNL     1      -6.428  -1.129  -1.278  1.00  0.00     0.021 A 
ENDBRANCH   1  12
BRANCH   5  19
ATOM     19  C   UNL     1       1.919   0.952   0.461  1.00  0.00     0.155 C 
BRANCH  19  20
ATOM     20  C   UNL     1       3.345   1.214   0.070  1.00  0.00     0.014 A 
ATOM     21  C   UNL     1       4.237   0.195  -0.256  1.00  0.00     0.005 A 
ATOM     22  C   UNL     1       3.839   2.525   0.015  1.00  0.00     0.128 A 
ATOM     23  C   UNL     1       4.025  -1.269  -0.357  1.00  0.00     0.081 C 
ATOM     24  C   UNL     1       5.544   0.481  -0.631  1.00  0.00     0.123 A 
ATOM     25  C   UNL     1       5.158   2.809  -0.365  1.00  0.00     0.043 A 
ATOM     26  F   UNL     1       3.031   3.550   0.322  1.00  0.00    -0.207 F 
ATOM     27  C   UNL     1       5.480  -1.727  -0.460  1.00  0.00     0.234 C 
ATOM     28  O   UNL     1       6.287  -0.628  -0.940  1.00  0.00    -0.493 OA
ATOM     29  C   UNL     1       6.027   1.772  -0.700  1.00  0.00     0.050 A 
ENDBRANCH  19  20
ENDBRANCH   5  19
TORSDOF 3
