REMARK SMILES COc1ccc2c(c1)c(CC(=O)OCC(=O)O)c(C)n2C(=O)c1ccc(Cl)cc1
REMARK SMILES IDX 11 1 12 2 10 3 9 4 3 5 4 6 8 7 5 8 7 9 6 10 20 11 18 12
REMARK SMILES IDX 19 13 2 14 1 15 21 16 22 17 23 18 24 19 29 20 25 21 28 22
REMARK SMILES IDX 26 23 27 24 13 25 14 26 15 27 16 28 17 29
REMARK H PARENT 17 30
REMARK Flexibility Score: inf
ROOT
ATOM      1  C   UNL     1       2.235   1.628   0.112  1.00  0.00     0.310 C 
ATOM      2  O   UNL     1       1.585   1.880  -0.894  1.00  0.00    -0.252 OA
ENDROOT
BRANCH   1   3
ATOM      3  C   UNL     1       1.786   0.784   1.290  1.00  0.00     0.160 C 
BRANCH   3   4
ATOM      4  C   UNL     1       0.583  -0.057   0.971  1.00  0.00    -0.008 A 
ATOM      5  C   UNL     1       1.302  -3.776   0.404  1.00  0.00     0.119 A 
ATOM      6  C   UNL     1      -0.016  -4.145   0.168  1.00  0.00     0.048 A 
ATOM      7  C   UNL     1       1.607  -2.436   0.671  1.00  0.00     0.057 A 
ATOM      8  C   UNL     1      -1.044  -3.194   0.189  1.00  0.00     0.031 A 
ATOM      9  C   UNL     1       0.588  -1.458   0.711  1.00  0.00     0.008 A 
ATOM     10  C   UNL     1      -0.729  -1.850   0.469  1.00  0.00     0.057 A 
ATOM     11  N   UNL     1      -1.529  -0.702   0.484  1.00  0.00    -0.280 N 
ATOM     12  C   UNL     1      -0.740   0.363   0.928  1.00  0.00     0.028 A 
ATOM     13  C   UNL     1      -1.283   1.702   1.311  1.00  0.00     0.065 C 
BRANCH   5  14
ATOM     14  O   UNL     1       2.386  -4.613   0.403  1.00  0.00    -0.497 OA
ATOM     15  C   UNL     1       2.133  -5.990   0.153  1.00  0.00     0.278 C 
ENDBRANCH   5  14
BRANCH  11  16
ATOM     16  C   UNL     1      -2.895  -0.658   0.101  1.00  0.00     0.262 C 
ATOM     17  O   UNL     1      -3.574  -1.672   0.257  1.00  0.00    -0.268 OA
BRANCH  16  18
ATOM     18  C   UNL     1      -3.562   0.514  -0.514  1.00  0.00     0.040 A 
ATOM     19  C   UNL     1      -4.886   0.807  -0.162  1.00  0.00     0.015 A 
ATOM     20  C   UNL     1      -2.910   1.279  -1.490  1.00  0.00     0.015 A 
ATOM     21  C   UNL     1      -5.541   1.890  -0.754  1.00  0.00     0.021 A 
ATOM     22  C   UNL     1      -3.569   2.362  -2.079  1.00  0.00     0.021 A 
ATOM     23  C   UNL     1      -4.878   2.664  -1.706  1.00  0.00     0.041 A 
ATOM     24  Cl  UNL     1      -5.685   3.998  -2.432  1.00  0.00    -0.084 Cl
ENDBRANCH  16  18
ENDBRANCH  11  16
ENDBRANCH   3   4
ENDBRANCH   1   3
BRANCH   1  25
ATOM     25  O   UNL     1       3.485   2.116   0.356  1.00  0.00    -0.453 OA
BRANCH  25  26
ATOM     26  C   UNL     1       4.003   2.934  -0.695  1.00  0.00     0.355 C 
BRANCH  26  27
ATOM     27  C   UNL     1       5.384   3.436  -0.329  1.00  0.00     0.341 C 
ATOM     28  O   UNL     1       6.006   3.222   0.699  1.00  0.00    -0.248 OA
BRANCH  27  29
ATOM     29  O   UNL     1       5.924   4.204  -1.300  1.00  0.00    -0.479 OA
ATOM     30  H   UNL     1       6.802   4.456  -0.942  1.00  0.00     0.296 HD
ENDBRANCH  27  29
ENDBRANCH  26  27
ENDBRANCH  25  26
ENDBRANCH   1  25
TORSDOF 9
