REMARK SMILES Cc1cc(C(C)(C)C)c(O)c(C)c1CC1=NCCN1
REMARK SMILES IDX 1 1 2 2 3 3 4 4 9 5 11 6 12 7 13 8 14 9 15 10 16 11 19 12
REMARK SMILES IDX 17 13 18 14 5 16 6 17 7 18 8 19 10 20
REMARK H PARENT 19 15 10 21
REMARK Flexibility Score: inf
ROOT
ATOM      1  C   UNL     1       1.523  -0.347  -2.647  1.00  0.00     0.044 C 
ATOM      2  C   UNL     1       0.538  -0.358  -1.505  1.00  0.00    -0.047 A 
ATOM      3  C   UNL     1      -0.634   0.410  -1.644  1.00  0.00     0.011 A 
ATOM      4  C   UNL     1      -1.622   0.479  -0.644  1.00  0.00    -0.000 A 
ATOM      5  C   UNL     1      -1.379  -0.265   0.529  1.00  0.00     0.122 A 
ATOM      6  C   UNL     1      -0.232  -1.083   0.694  1.00  0.00    -0.005 A 
ATOM      7  C   UNL     1      -0.060  -1.880   1.968  1.00  0.00     0.049 C 
ATOM      8  C   UNL     1       0.751  -1.114  -0.330  1.00  0.00    -0.031 A 
ENDROOT
BRANCH   8   9
ATOM      9  C   UNL     1       2.027  -1.927  -0.165  1.00  0.00     0.110 C 
BRANCH   9  10
ATOM     10  C   UNL     1       2.987  -1.309   0.827  1.00  0.00     0.101 C 
ATOM     11  N   UNL     1       3.382  -1.960   1.893  1.00  0.00    -0.271 NA
ATOM     12  N   UNL     1       3.483  -0.037   0.661  1.00  0.00    -0.372 N 
ATOM     13  C   UNL     1       4.297  -1.007   2.584  1.00  0.00     0.165 C 
ATOM     14  C   UNL     1       4.098   0.354   1.908  1.00  0.00     0.137 C 
ATOM     15  H   UNL     1       2.856   0.633   0.222  1.00  0.00     0.161 HD
ENDBRANCH   9  10
ENDBRANCH   8   9
BRANCH   4  16
ATOM     16  C   UNL     1      -2.898   1.333  -0.843  1.00  0.00    -0.010 C 
ATOM     17  C   UNL     1      -2.961   2.465   0.205  1.00  0.00     0.016 C 
ATOM     18  C   UNL     1      -2.975   2.027  -2.230  1.00  0.00     0.016 C 
ATOM     19  C   UNL     1      -4.165   0.453  -0.744  1.00  0.00     0.016 C 
ENDBRANCH   4  16
BRANCH   5  20
ATOM     20  O   UNL     1      -2.307  -0.174   1.539  1.00  0.00    -0.507 OA
ATOM     21  H   UNL     1      -1.939  -0.524   2.363  1.00  0.00     0.293 HD
ENDBRANCH   5  20
TORSDOF 4
