REMARK SMILES CCCCC(=O)N(Cc1ccc(-c2ccccc2-c2nnn[nH]2)cc1)[C@H](C(=O)O)C(C)C
REMARK SMILES IDX 7 1 5 2 6 3 4 4 3 5 2 6 1 7 8 8 9 9 10 10 25 11 11 12 24 13
REMARK SMILES IDX 12 14 13 15 14 16 18 17 15 18 17 19 16 20 19 21 20 22 23 23
REMARK SMILES IDX 21 24 22 25 26 27 27 28 28 29 29 30 30 32 31 33 32 34
REMARK H PARENT 23 26 29 31
REMARK Flexibility Score: inf
ROOT
ATOM      1  N   UNL     1       2.064  -0.673  -0.261  1.00  0.00    -0.324 N 
ENDROOT
BRANCH   1   2
ATOM      2  C   UNL     1       2.948  -0.050   0.617  1.00  0.00     0.223 C 
ATOM      3  O   UNL     1       3.648  -0.692   1.400  1.00  0.00    -0.275 OA
BRANCH   2   4
ATOM      4  C   UNL     1       3.005   1.472   0.590  1.00  0.00     0.100 C 
BRANCH   4   5
ATOM      5  C   UNL     1       3.945   2.040   1.657  1.00  0.00     0.010 C 
BRANCH   5   6
ATOM      6  C   UNL     1       4.110   3.558   1.571  1.00  0.00    -0.003 C 
ATOM      7  C   UNL     1       2.830   4.326   1.861  1.00  0.00     0.004 C 
ENDBRANCH   5   6
ENDBRANCH   4   5
ENDBRANCH   2   4
ENDBRANCH   1   2
BRANCH   1   8
ATOM      8  C   UNL     1       1.254   0.036  -1.255  1.00  0.00     0.156 C 
BRANCH   8   9
ATOM      9  C   UNL     1      -0.236  -0.060  -1.002  1.00  0.00    -0.029 A 
ATOM     10  C   UNL     1      -1.112  -0.325  -2.064  1.00  0.00     0.006 A 
ATOM     11  C   UNL     1      -0.774   0.150   0.274  1.00  0.00     0.006 A 
ATOM     12  C   UNL     1      -2.491  -0.399  -1.848  1.00  0.00     0.009 A 
ATOM     13  C   UNL     1      -2.152   0.072   0.490  1.00  0.00     0.009 A 
ATOM     14  C   UNL     1      -3.031  -0.194  -0.569  1.00  0.00    -0.018 A 
BRANCH  14  15
ATOM     15  C   UNL     1      -4.484  -0.252  -0.347  1.00  0.00    -0.007 A 
ATOM     16  C   UNL     1      -5.102  -1.520  -0.394  1.00  0.00     0.009 A 
ATOM     17  C   UNL     1      -5.281   0.886  -0.065  1.00  0.00     0.028 A 
ATOM     18  C   UNL     1      -6.468  -1.675  -0.160  1.00  0.00     0.001 A 
ATOM     19  C   UNL     1      -6.657   0.700   0.180  1.00  0.00     0.013 A 
ATOM     20  C   UNL     1      -7.246  -0.564   0.131  1.00  0.00     0.001 A 
BRANCH  17  21
ATOM     21  C   UNL     1      -4.779   2.264  -0.014  1.00  0.00     0.180 A 
ATOM     22  N   UNL     1      -5.338   3.289   0.608  1.00  0.00    -0.109 NA
ATOM     23  N   UNL     1      -3.668   2.752  -0.649  1.00  0.00    -0.239 N 
ATOM     24  N   UNL     1      -4.550   4.385   0.358  1.00  0.00    -0.024 NA
ATOM     25  N   UNL     1      -3.525   4.063  -0.415  1.00  0.00    -0.048 NA
ATOM     26  H   UNL     1      -2.995   2.279  -1.236  1.00  0.00     0.194 HD
ENDBRANCH  17  21
ENDBRANCH  14  15
ENDBRANCH   8   9
ENDBRANCH   1   8
BRANCH   1  27
ATOM     27  C   UNL     1       2.038  -2.160  -0.313  1.00  0.00     0.197 C 
BRANCH  27  28
ATOM     28  C   UNL     1       1.762  -2.851   1.041  1.00  0.00     0.326 C 
ATOM     29  O   UNL     1       1.950  -4.029   1.306  1.00  0.00    -0.250 OA
BRANCH  28  30
ATOM     30  O   UNL     1       1.126  -2.069   1.943  1.00  0.00    -0.480 OA
ATOM     31  H   UNL     1       1.062  -2.640   2.735  1.00  0.00     0.296 HD
ENDBRANCH  28  30
ENDBRANCH  27  28
BRANCH  27  32
ATOM     32  C   UNL     1       3.199  -2.760  -1.155  1.00  0.00     0.017 C 
ATOM     33  C   UNL     1       2.820  -4.134  -1.726  1.00  0.00     0.010 C 
ATOM     34  C   UNL     1       4.547  -2.862  -0.440  1.00  0.00     0.010 C 
ENDBRANCH  27  32
ENDBRANCH   1  27
TORSDOF 12
