REMARK SMILES COc1c(-c2ccc3cc(NS(C)(=O)=O)ccc3c2)cc(-n2ccc(=O)[nH]c2=O)cc1C(C)(C)C
REMARK SMILES IDX 5 1 6 2 7 3 8 4 9 5 10 6 16 7 17 8 18 9 19 10 4 11 3 12
REMARK SMILES IDX 31 13 20 14 30 15 21 16 2 17 1 18 32 19 33 20 34 21 35 22
REMARK SMILES IDX 22 23 23 24 28 25 24 26 27 27 29 28 25 29 26 31 11 32 12 34
REMARK SMILES IDX 13 35 14 36 15 37
REMARK H PARENT 27 30 11 33
REMARK Flexibility Score: inf
ROOT
ATOM      1  C   UNL     1       0.623  -0.176  -0.435  1.00  0.00    -0.014 A 
ATOM      2  C   UNL     1       1.259   0.383  -1.552  1.00  0.00     0.009 A 
ATOM      3  C   UNL     1       2.632   0.223  -1.753  1.00  0.00     0.009 A 
ATOM      4  C   UNL     1       3.409  -0.506  -0.842  1.00  0.00    -0.016 A 
ATOM      5  C   UNL     1       4.791  -0.671  -1.027  1.00  0.00     0.035 A 
ATOM      6  C   UNL     1       5.543  -1.408  -0.113  1.00  0.00     0.049 A 
ATOM      7  C   UNL     1       4.937  -1.967   1.009  1.00  0.00     0.027 A 
ATOM      8  C   UNL     1       3.564  -1.807   1.206  1.00  0.00     0.011 A 
ATOM      9  C   UNL     1       2.786  -1.082   0.289  1.00  0.00    -0.018 A 
ATOM     10  C   UNL     1       1.404  -0.910   0.476  1.00  0.00     0.017 A 
ENDROOT
BRANCH   1  11
ATOM     11  C   UNL     1      -0.829  -0.010  -0.229  1.00  0.00     0.026 A 
ATOM     12  C   UNL     1      -1.453   1.253  -0.086  1.00  0.00     0.130 A 
ATOM     13  C   UNL     1      -2.861   1.382  -0.023  1.00  0.00     0.002 A 
ATOM     14  C   UNL     1      -1.636  -1.162  -0.214  1.00  0.00     0.039 A 
ATOM     15  C   UNL     1      -3.609   0.181  -0.001  1.00  0.00     0.035 A 
ATOM     16  C   UNL     1      -3.028  -1.096  -0.082  1.00  0.00     0.051 A 
BRANCH  12  17
ATOM     17  O   UNL     1      -0.690   2.398  -0.068  1.00  0.00    -0.496 OA
ATOM     18  C   UNL     1       0.103   2.506   1.118  1.00  0.00     0.278 C 
ENDBRANCH  12  17
BRANCH  13  19
ATOM     19  C   UNL     1      -3.584   2.754   0.012  1.00  0.00    -0.009 C 
ATOM     20  C   UNL     1      -5.132   2.649  -0.070  1.00  0.00     0.016 C 
ATOM     21  C   UNL     1      -3.277   3.493   1.331  1.00  0.00     0.016 C 
ATOM     22  C   UNL     1      -3.164   3.631  -1.191  1.00  0.00     0.016 C 
ENDBRANCH  13  19
BRANCH  16  23
ATOM     23  N   UNL     1      -3.833  -2.300  -0.075  1.00  0.00    -0.269 N 
ATOM     24  C   UNL     1      -3.417  -3.441  -0.756  1.00  0.00     0.102 C 
ATOM     25  C   UNL     1      -5.044  -2.331   0.651  1.00  0.00     0.332 C 
ATOM     26  C   UNL     1      -4.098  -4.588  -0.755  1.00  0.00     0.090 C 
ATOM     27  N   UNL     1      -5.764  -3.501   0.564  1.00  0.00    -0.274 N 
ATOM     28  O   UNL     1      -5.490  -1.442   1.375  1.00  0.00    -0.247 OA
ATOM     29  C   UNL     1      -5.355  -4.666  -0.006  1.00  0.00     0.253 C 
ATOM     30  H   UNL     1      -6.605  -3.539   1.120  1.00  0.00     0.175 HD
ATOM     31  O   UNL     1      -5.973  -5.718   0.088  1.00  0.00    -0.269 OA
ENDBRANCH  16  23
ENDBRANCH   1  11
BRANCH   6  32
ATOM     32  N   UNL     1       6.952  -1.528  -0.294  1.00  0.00    -0.284 N 
ATOM     33  H   UNL     1       7.343  -2.436  -0.031  1.00  0.00     0.180 HD
BRANCH  32  34
ATOM     34  S   UNL     1       7.919  -0.316   0.390  1.00  0.00     0.229 S 
ATOM     35  C   UNL     1       8.247   0.708  -1.028  1.00  0.00     0.183 C 
ATOM     36  O   UNL     1       7.165   0.445   1.360  1.00  0.00    -0.207 OA
ATOM     37  O   UNL     1       9.157  -0.975   0.749  1.00  0.00    -0.207 OA
ENDBRANCH  32  34
ENDBRANCH   6  32
TORSDOF 6
