REMARK SMILES FC(F)(c1ccc2ncccc2c1)c1nnc2ccc(-c3ccncc3)nn12
REMARK SMILES IDX 14 1 15 2 16 3 17 4 18 5 19 6 20 7 27 8 28 9 2 10 1 11 3 12
REMARK SMILES IDX 4 13 13 14 5 15 12 16 6 17 7 18 11 19 8 20 10 21 9 22 21 23
REMARK SMILES IDX 22 24 26 25 23 26 25 27 24 28
REMARK H PARENT
REMARK Flexibility Score: inf
ROOT
ATOM      1  C   UNL     1      -0.076  -1.460  -2.622  1.00  0.00     0.229 A 
ATOM      2  N   UNL     1      -0.050  -1.325  -3.938  1.00  0.00    -0.126 NA
ATOM      3  N   UNL     1      -1.051  -0.453  -4.299  1.00  0.00    -0.128 NA
ATOM      4  C   UNL     1      -1.661  -0.071  -3.200  1.00  0.00     0.178 A 
ATOM      5  C   UNL     1      -2.742   0.801  -2.962  1.00  0.00     0.053 C 
ATOM      6  C   UNL     1      -3.144   1.018  -1.703  1.00  0.00     0.035 C 
ATOM      7  C   UNL     1      -2.408   0.312  -0.608  1.00  0.00     0.092 C 
ATOM      8  N   UNL     1      -1.426  -0.522  -0.796  1.00  0.00    -0.164 NA
ATOM      9  N   UNL     1      -1.082  -0.684  -2.108  1.00  0.00    -0.190 N 
ENDROOT
BRANCH   1  10
ATOM     10  C   UNL     1       0.820  -2.275  -1.757  1.00  0.00     0.333 C 
ATOM     11  F   UNL     1       1.442  -3.234  -2.515  1.00  0.00    -0.192 F 
ATOM     12  F   UNL     1       0.076  -3.005  -0.865  1.00  0.00    -0.192 F 
BRANCH  10  13
ATOM     13  C   UNL     1       1.856  -1.411  -1.048  1.00  0.00     0.030 A 
ATOM     14  C   UNL     1       1.685  -1.031   0.292  1.00  0.00     0.020 A 
ATOM     15  C   UNL     1       2.994  -0.959  -1.728  1.00  0.00     0.013 A 
ATOM     16  C   UNL     1       2.628  -0.210   0.936  1.00  0.00     0.001 A 
ATOM     17  C   UNL     1       3.930  -0.145  -1.079  1.00  0.00     0.029 A 
ATOM     18  C   UNL     1       3.770   0.243   0.244  1.00  0.00     0.070 A 
ATOM     19  C   UNL     1       2.468   0.185   2.271  1.00  0.00     0.012 A 
ATOM     20  N   UNL     1       4.695   1.030   0.820  1.00  0.00    -0.256 NA
ATOM     21  C   UNL     1       3.423   0.997   2.869  1.00  0.00     0.021 A 
ATOM     22  C   UNL     1       4.508   1.389   2.110  1.00  0.00     0.112 A 
ENDBRANCH  10  13
ENDBRANCH   1  10
BRANCH   7  23
ATOM     23  C   UNL     1      -2.857   0.579   0.785  1.00  0.00     0.005 A 
ATOM     24  C   UNL     1      -3.273   1.846   1.195  1.00  0.00     0.030 A 
ATOM     25  C   UNL     1      -2.816  -0.466   1.709  1.00  0.00     0.030 A 
ATOM     26  C   UNL     1      -3.652   2.004   2.517  1.00  0.00     0.111 A 
ATOM     27  C   UNL     1      -3.219  -0.205   3.005  1.00  0.00     0.111 A 
ATOM     28  N   UNL     1      -3.640   1.006   3.426  1.00  0.00    -0.265 NA
ENDBRANCH   7  23
TORSDOF 3
