REMARK SMILES N=C1CCCN1Cc1[nH]c(=O)[nH]c(=O)c1Cl
REMARK SMILES IDX 7 1 6 2 1 3 2 4 3 6 4 7 5 8 8 9 9 10 15 11 10 12 13 14 16 15
REMARK SMILES IDX 11 16 12 17 14 18
REMARK H PARENT 1 5 9 13 12 19
REMARK Flexibility Score: inf
ROOT
ATOM      1  C   UNL     1      -0.445  -1.523   0.071  1.00  0.00     0.173 C 
ENDROOT
BRANCH   1   2
ATOM      2  N   UNL     1      -1.348  -0.423  -0.222  1.00  0.00    -0.355 N 
ATOM      3  N   UNL     1      -1.903   0.363   1.963  1.00  0.00    -0.288 NA
ATOM      4  C   UNL     1      -1.844   0.474   0.686  1.00  0.00     0.096 C 
ATOM      5  H   UNL     1      -1.611  -0.568   2.262  1.00  0.00     0.189 HD
ATOM      6  C   UNL     1      -2.307   1.730  -0.010  1.00  0.00     0.076 C 
ATOM      7  C   UNL     1      -2.403   1.250  -1.457  1.00  0.00     0.029 C 
ATOM      8  C   UNL     1      -1.353   0.144  -1.565  1.00  0.00     0.118 C 
ENDBRANCH   1   2
BRANCH   1   9
ATOM      9  C   UNL     1       0.981  -1.025   0.235  1.00  0.00     0.063 C 
ATOM     10  N   UNL     1       1.187  -0.064   1.211  1.00  0.00    -0.308 N 
ATOM     11  C   UNL     1       2.026  -1.457  -0.494  1.00  0.00     0.127 C 
ATOM     12  C   UNL     1       2.390   0.516   1.492  1.00  0.00     0.326 C 
ATOM     13  H   UNL     1       0.391   0.316   1.726  1.00  0.00     0.171 HD
ATOM     14  C   UNL     1       3.380  -0.891  -0.218  1.00  0.00     0.272 C 
ATOM     15  Cl  UNL     1       1.912  -2.638  -1.743  1.00  0.00    -0.076 Cl
ATOM     16  O   UNL     1       2.517   1.375   2.356  1.00  0.00    -0.248 OA
ATOM     17  N   UNL     1       3.443   0.073   0.750  1.00  0.00    -0.273 N 
ATOM     18  O   UNL     1       4.389  -1.260  -0.809  1.00  0.00    -0.268 OA
ATOM     19  H   UNL     1       4.346   0.473   0.952  1.00  0.00     0.175 HD
ENDBRANCH   1   9
TORSDOF 2
