REMARK SMILES Cc1cn([C@@H]2C[C@@H](O)[C@H](CO)O2)c(=O)[nH]c1=O
REMARK SMILES IDX 5 1 6 2 7 3 9 4 12 5 4 6 1 7 2 8 3 9 16 10 15 11 17 12 13 13
REMARK SMILES IDX 14 15 8 16 10 18 11 19
REMARK H PARENT 15 14 8 17 11 20
REMARK Flexibility Score: inf
ROOT
ATOM      1  C   UNL     1      -0.551  -0.343   0.927  1.00  0.00     0.226 C 
ATOM      2  C   UNL     1      -1.084  -1.608   0.265  1.00  0.00     0.090 C 
ATOM      3  C   UNL     1      -2.565  -1.328   0.217  1.00  0.00     0.150 C 
ATOM      4  C   UNL     1      -2.617   0.178  -0.037  1.00  0.00     0.175 C 
ATOM      5  O   UNL     1      -1.372   0.741   0.454  1.00  0.00    -0.349 OA
ENDROOT
BRANCH   1   6
ATOM      6  N   UNL     1       0.859  -0.108   0.635  1.00  0.00    -0.274 N 
ATOM      7  C   UNL     1       3.024   1.886  -1.741  1.00  0.00     0.052 C 
ATOM      8  C   UNL     1       2.546   0.959  -0.672  1.00  0.00     0.031 C 
ATOM      9  C   UNL     1       1.259   0.758  -0.365  1.00  0.00     0.102 C 
ATOM     10  C   UNL     1       3.569   0.211   0.095  1.00  0.00     0.256 C 
ATOM     11  N   UNL     1       3.095  -0.616   1.071  1.00  0.00    -0.274 N 
ATOM     12  O   UNL     1       4.767   0.321  -0.141  1.00  0.00    -0.269 OA
ATOM     13  C   UNL     1       1.779  -0.848   1.365  1.00  0.00     0.330 C 
ATOM     14  H   UNL     1       3.776  -1.147   1.589  1.00  0.00     0.175 HD
ATOM     15  O   UNL     1       1.472  -1.680   2.216  1.00  0.00    -0.248 OA
ENDBRANCH   1   6
BRANCH   3  16
ATOM     16  O   UNL     1      -3.139  -1.623   1.490  1.00  0.00    -0.390 OA
ATOM     17  H   UNL     1      -3.070  -2.583   1.639  1.00  0.00     0.211 HD
ENDBRANCH   3  16
BRANCH   4  18
ATOM     18  C   UNL     1      -2.702   0.523  -1.525  1.00  0.00     0.190 C 
BRANCH  18  19
ATOM     19  O   UNL     1      -2.708   1.940  -1.697  1.00  0.00    -0.394 OA
ATOM     20  H   UNL     1      -2.097   2.297  -1.024  1.00  0.00     0.210 HD
ENDBRANCH  18  19
ENDBRANCH   4  18
TORSDOF 4
