REMARK SMILES CC1(C)S[C@@H]2[C@H](NC(=O)COc3ccccc3)C(=O)N2[C@H]1C(=O)O
REMARK SMILES IDX 7 1 8 2 9 3 6 5 1 6 2 7 3 8 4 9 21 10 5 11 20 12 18 13 19 14
REMARK SMILES IDX 22 15 23 16 24 17 10 19 11 20 12 21 13 22 17 23 14 24 16 25
REMARK SMILES IDX 15 26
REMARK H PARENT 7 4 24 18
REMARK Flexibility Score: inf
ROOT
ATOM      1  N   UNL     1       0.555   1.390  -0.883  1.00  0.00    -0.339 N 
ATOM      2  C   UNL     1       1.436   0.945  -1.841  1.00  0.00     0.258 C 
ATOM      3  O   UNL     1       1.157   0.930  -3.038  1.00  0.00    -0.271 OA
ATOM      4  H   UNL     1       0.861   1.327   0.085  1.00  0.00     0.164 HD
ENDROOT
BRANCH   1   5
ATOM      5  C   UNL     1      -0.825   1.802  -1.225  1.00  0.00     0.205 C 
ATOM      6  C   UNL     1      -4.174  -1.558  -1.282  1.00  0.00     0.026 C 
ATOM      7  C   UNL     1      -3.143  -1.159  -0.218  1.00  0.00     0.044 C 
ATOM      8  C   UNL     1      -3.065  -2.234   0.869  1.00  0.00     0.026 C 
ATOM      9  S   UNL     1      -1.483  -1.032  -1.040  1.00  0.00    -0.125 SA
ATOM     10  C   UNL     1      -3.349   0.248   0.375  1.00  0.00     0.211 C 
ATOM     11  C   UNL     1      -1.837   0.688  -1.588  1.00  0.00     0.176 C 
ATOM     12  N   UNL     1      -2.722   1.212  -0.528  1.00  0.00    -0.311 N 
ATOM     13  C   UNL     1      -1.773   2.066  -0.033  1.00  0.00     0.250 C 
ATOM     14  O   UNL     1      -1.713   2.653   1.022  1.00  0.00    -0.272 OA
BRANCH  10  15
ATOM     15  C   UNL     1      -4.811   0.610   0.599  1.00  0.00     0.327 C 
ATOM     16  O   UNL     1      -5.539   1.247  -0.146  1.00  0.00    -0.250 OA
BRANCH  15  17
ATOM     17  O   UNL     1      -5.303   0.101   1.748  1.00  0.00    -0.480 OA
ATOM     18  H   UNL     1      -6.227   0.430   1.777  1.00  0.00     0.296 HD
ENDBRANCH  15  17
ENDBRANCH  10  15
ENDBRANCH   1   5
BRANCH   2  19
ATOM     19  C   UNL     1       2.784   0.466  -1.305  1.00  0.00     0.329 C 
BRANCH  19  20
ATOM     20  O   UNL     1       2.838   0.602   0.114  1.00  0.00    -0.484 OA
BRANCH  20  21
ATOM     21  C   UNL     1       3.994   0.206   0.728  1.00  0.00     0.120 A 
ATOM     22  C   UNL     1       4.002   0.372   2.116  1.00  0.00     0.046 A 
ATOM     23  C   UNL     1       5.118  -0.329   0.098  1.00  0.00     0.046 A 
ATOM     24  C   UNL     1       5.120   0.009   2.869  1.00  0.00     0.004 A 
ATOM     25  C   UNL     1       6.238  -0.693   0.853  1.00  0.00     0.004 A 
ATOM     26  C   UNL     1       6.239  -0.525   2.236  1.00  0.00     0.000 A 
ENDBRANCH  20  21
ENDBRANCH  19  20
ENDBRANCH   2  19
TORSDOF 6
