REMARK SMILES Cc1ccccc1N1C(=O)c2cc(S(N)(=O)=O)c(Cl)cc2NC1C
REMARK SMILES IDX 8 1 9 2 10 3 11 4 12 5 13 6 18 7 19 8 20 9 21 10 22 11 23 12
REMARK SMILES IDX 24 13 7 15 1 16 2 17 3 18 4 19 6 20 5 21 14 22 16 23 17 24
REMARK SMILES IDX 15 25
REMARK H PARENT 22 14 15 26 15 27
REMARK Flexibility Score: inf
ROOT
ATOM      1  N   UNL     1      -1.041  -0.034   0.335  1.00  0.00    -0.288 N 
ATOM      2  C   UNL     1      -0.009   0.870   0.069  1.00  0.00     0.262 C 
ATOM      3  O   UNL     1      -0.164   2.044  -0.260  1.00  0.00    -0.269 OA
ATOM      4  C   UNL     1       1.374   0.361   0.201  1.00  0.00     0.065 A 
ATOM      5  C   UNL     1       2.465   1.177  -0.128  1.00  0.00     0.039 A 
ATOM      6  C   UNL     1       3.772   0.710   0.069  1.00  0.00     0.101 A 
ATOM      7  C   UNL     1       3.979  -0.560   0.609  1.00  0.00     0.063 A 
ATOM      8  Cl  UNL     1       5.538  -1.246   0.882  1.00  0.00    -0.083 Cl
ATOM      9  C   UNL     1       2.875  -1.361   0.936  1.00  0.00     0.048 A 
ATOM     10  C   UNL     1       1.565  -0.925   0.702  1.00  0.00     0.050 A 
ATOM     11  N   UNL     1       0.482  -1.707   1.108  1.00  0.00    -0.364 N 
ATOM     12  C   UNL     1      -0.772  -1.466   0.388  1.00  0.00     0.181 C 
ATOM     13  C   UNL     1      -1.849  -2.284   1.115  1.00  0.00     0.056 C 
ATOM     14  H   UNL     1       0.707  -2.697   1.171  1.00  0.00     0.162 HD
ENDROOT
BRANCH   1  15
ATOM     15  C   UNL     1      -2.375   0.433   0.136  1.00  0.00     0.049 A 
ATOM     16  C   UNL     1      -2.698  -0.809  -2.084  1.00  0.00     0.046 C 
ATOM     17  C   UNL     1      -3.187   0.045  -0.949  1.00  0.00    -0.027 A 
ATOM     18  C   UNL     1      -4.514   0.508  -0.997  1.00  0.00     0.005 A 
ATOM     19  C   UNL     1      -5.012   1.372  -0.021  1.00  0.00     0.000 A 
ATOM     20  C   UNL     1      -2.877   1.330   1.092  1.00  0.00     0.027 A 
ATOM     21  C   UNL     1      -4.190   1.794   1.017  1.00  0.00     0.002 A 
ENDBRANCH   1  15
BRANCH   6  22
ATOM     22  S   UNL     1       5.115   1.790  -0.328  1.00  0.00     0.239 S 
ATOM     23  O   UNL     1       4.585   2.916  -1.064  1.00  0.00    -0.207 OA
ATOM     24  O   UNL     1       5.922   1.961   0.854  1.00  0.00    -0.207 OA
BRANCH  22  25
ATOM     25  N   UNL     1       5.999   0.934  -1.472  1.00  0.00    -0.225 NA
ATOM     26  H   UNL     1       5.820  -0.067  -1.495  1.00  0.00     0.137 HD
ATOM     27  H   UNL     1       5.924   1.392  -2.381  1.00  0.00     0.137 HD
ENDBRANCH  22  25
ENDBRANCH   6  22
TORSDOF 3
