REMARK SMILES CN1[C@@H]2CC[C@H]1C[C@@H](OC(=O)C(CO)c1ccccc1)C2
REMARK SMILES IDX 10 1 11 2 9 3 8 4 1 5 2 6 3 7 6 8 4 9 21 10 5 11 7 12 12 13
REMARK SMILES IDX 13 14 14 15 15 17 16 18 20 19 17 20 19 21 18 22
REMARK H PARENT 14 16
REMARK Flexibility Score: inf
ROOT
ATOM      1  C   UNL     1       1.248  -1.655   0.391  1.00  0.00     0.316 C 
ATOM      2  O   UNL     1       0.968  -2.140   1.481  1.00  0.00    -0.251 OA
ENDROOT
BRANCH   1   3
ATOM      3  O   UNL     1       0.358  -1.057  -0.451  1.00  0.00    -0.462 OA
BRANCH   3   4
ATOM      4  C   UNL     1      -1.013  -0.997  -0.006  1.00  0.00     0.179 C 
ATOM      5  C   UNL     1      -4.928  -0.020   0.805  1.00  0.00     0.105 C 
ATOM      6  N   UNL     1      -3.529  -0.277   0.475  1.00  0.00    -0.300 NA
ATOM      7  C   UNL     1      -2.610   0.712   1.069  1.00  0.00     0.060 C 
ATOM      8  C   UNL     1      -3.244  -0.139  -0.964  1.00  0.00     0.060 C 
ATOM      9  C   UNL     1      -2.710   1.936   0.152  1.00  0.00     0.021 C 
ATOM     10  C   UNL     1      -1.189   0.119   1.038  1.00  0.00     0.064 C 
ATOM     11  C   UNL     1      -3.135   1.372  -1.197  1.00  0.00     0.021 C 
ATOM     12  C   UNL     1      -1.900  -0.835  -1.251  1.00  0.00     0.064 C 
ENDBRANCH   3   4
ENDBRANCH   1   3
BRANCH   1  13
ATOM     13  C   UNL     1       2.666  -1.588  -0.153  1.00  0.00     0.155 C 
BRANCH  13  14
ATOM     14  C   UNL     1       2.749  -2.186  -1.565  1.00  0.00     0.176 C 
BRANCH  14  15
ATOM     15  O   UNL     1       2.648  -3.610  -1.533  1.00  0.00    -0.395 OA
ATOM     16  H   UNL     1       3.440  -3.958  -1.087  1.00  0.00     0.210 HD
ENDBRANCH  14  15
ENDBRANCH  13  14
BRANCH  13  17
ATOM     17  C   UNL     1       3.226  -0.177  -0.053  1.00  0.00    -0.032 A 
ATOM     18  C   UNL     1       2.941   0.807  -1.014  1.00  0.00     0.005 A 
ATOM     19  C   UNL     1       4.020   0.175   1.050  1.00  0.00     0.005 A 
ATOM     20  C   UNL     1       3.455   2.098  -0.885  1.00  0.00     0.000 A 
ATOM     21  C   UNL     1       4.533   1.467   1.177  1.00  0.00     0.000 A 
ATOM     22  C   UNL     1       4.252   2.427   0.209  1.00  0.00     0.000 A 
ENDBRANCH  13  17
ENDBRANCH   1  13
TORSDOF 6
