REMARK SMILES CC(=O)CC(c1ccc([N+](=O)[O-])cc1)c1c(O)c2ccccc2oc1=O
REMARK SMILES IDX 5 1 4 2 2 3 1 4 3 5 6 6 7 7 14 8 8 9 13 10 9 11 10 12 11 13
REMARK SMILES IDX 12 14 15 15 16 16 25 17 18 18 24 19 26 20 19 21 23 22 20 23
REMARK SMILES IDX 22 24 21 25 17 26
REMARK H PARENT 17 27
REMARK Flexibility Score: inf
ROOT
ATOM      1  C   UNL     1      -0.413  -0.736   0.989  1.00  0.00     0.068 C 
ENDROOT
BRANCH   1   2
ATOM      2  C   UNL     1      -0.251  -2.240   0.686  1.00  0.00     0.088 C 
BRANCH   2   3
ATOM      3  C   UNL     1      -1.404  -3.035   1.265  1.00  0.00     0.130 C 
ATOM      4  C   UNL     1      -2.366  -3.667   0.294  1.00  0.00     0.087 C 
ATOM      5  O   UNL     1      -1.550  -3.154   2.482  1.00  0.00    -0.300 OA
ENDBRANCH   2   3
ENDBRANCH   1   2
BRANCH   1   6
ATOM      6  C   UNL     1      -1.559  -0.135   0.168  1.00  0.00    -0.039 A 
ATOM      7  C   UNL     1      -1.505  -0.079  -1.235  1.00  0.00     0.011 A 
ATOM      8  C   UNL     1      -2.688   0.383   0.825  1.00  0.00     0.011 A 
ATOM      9  C   UNL     1      -2.558   0.474  -1.968  1.00  0.00     0.086 A 
ATOM     10  C   UNL     1      -3.746   0.938   0.101  1.00  0.00     0.086 A 
ATOM     11  C   UNL     1      -3.677   0.980  -1.296  1.00  0.00     0.269 A 
BRANCH  11  12
ATOM     12  N   UNL     1      -4.785   1.562  -2.063  1.00  0.00     0.062 N 
ATOM     13  O   UNL     1      -5.762   1.991  -1.434  1.00  0.00    -0.258 OA
ATOM     14  O   UNL     1      -4.680   1.585  -3.298  1.00  0.00    -0.258 OA
ENDBRANCH  11  12
ENDBRANCH   1   6
BRANCH   1  15
ATOM     15  C   UNL     1       0.852   0.116   0.862  1.00  0.00     0.088 C 
ATOM     16  C   UNL     1       1.891  -0.113   0.038  1.00  0.00     0.137 C 
ATOM     17  C   UNL     1       0.895   1.277   1.799  1.00  0.00     0.343 C 
ATOM     18  C   UNL     1       3.048   0.789  -0.007  1.00  0.00     0.060 A 
ATOM     19  O   UNL     1       2.056   2.035   1.829  1.00  0.00    -0.422 OA
ATOM     20  O   UNL     1      -0.039   1.547   2.546  1.00  0.00    -0.246 OA
ATOM     21  C   UNL     1       4.094   0.694  -0.936  1.00  0.00     0.016 A 
ATOM     22  C   UNL     1       3.101   1.826   0.919  1.00  0.00     0.142 A 
ATOM     23  C   UNL     1       5.170   1.590  -0.896  1.00  0.00     0.001 A 
ATOM     24  C   UNL     1       4.166   2.725   0.974  1.00  0.00     0.048 A 
ATOM     25  C   UNL     1       5.210   2.600   0.063  1.00  0.00     0.004 A 
BRANCH  16  26
ATOM     26  O   UNL     1       1.907  -1.205  -0.807  1.00  0.00    -0.507 OA
ATOM     27  H   UNL     1       2.830  -1.492  -0.924  1.00  0.00     0.293 HD
ENDBRANCH  16  26
ENDBRANCH   1  15
TORSDOF 6
