REMARK SMILES O=C1CN=C(c2ccccc2)c2cc(Cl)ccc2N1CC1CC1
REMARK SMILES IDX 12 1 13 2 14 3 15 4 16 5 17 6 18 7 19 8 2 9 1 10 20 12 21 13
REMARK SMILES IDX 22 14 23 15 5 16 4 17 6 18 7 19 11 20 8 21 10 22 9 23 3 24
REMARK H PARENT
REMARK Flexibility Score: 90.00
ROOT
ATOM      1  C   UNL     1      -0.559  -0.860   0.825  1.00  0.00     0.026 A 
ATOM      2  C   UNL     1      -1.356  -2.020   0.770  1.00  0.00     0.033 A 
ATOM      3  C   UNL     1      -0.766  -3.276   0.805  1.00  0.00     0.041 A 
ATOM      4  Cl  UNL     1      -1.743  -4.688   0.722  1.00  0.00    -0.084 Cl
ATOM      5  C   UNL     1       0.614  -3.393   0.898  1.00  0.00     0.023 A 
ATOM      6  C   UNL     1       1.407  -2.243   0.979  1.00  0.00     0.028 A 
ATOM      7  C   UNL     1       0.841  -0.953   0.969  1.00  0.00     0.053 A 
ENDROOT
BRANCH   7   8
ATOM      8  N   UNL     1       1.696   0.190   1.103  1.00  0.00    -0.310 N 
BRANCH   8   9
ATOM      9  C   UNL     1       1.315   1.369   1.758  1.00  0.00     0.248 CG0
ATOM     10  O   UNL     1       2.044   2.362   1.829  1.00  0.00    -0.272 OA
ATOM     11  G   UNL     1      -0.041   1.363   2.452  1.00  0.00     0.000 G0
ENDBRANCH   8   9
BRANCH   8  12
ATOM     12  C   UNL     1       3.030   0.173   0.491  1.00  0.00     0.129 C 
BRANCH  12  13
ATOM     13  C   UNL     1       2.925   0.133  -1.010  1.00  0.00     0.009 C 
ATOM     14  C   UNL     1       3.882   0.925  -1.866  1.00  0.00     0.006 C 
ATOM     15  C   UNL     1       2.440   1.341  -1.772  1.00  0.00     0.006 C 
ENDBRANCH  12  13
ENDBRANCH   8  12
ENDBRANCH   7   8
BRANCH   1  16
ATOM     16  C   UNL     1      -1.268   0.444   0.666  1.00  0.00     0.075 C 
ATOM     17  N   UNL     1      -1.082   1.465   1.434  1.00  0.00    -0.274 NA
BRANCH  16  18
ATOM     18  C   UNL     1      -2.267   0.590  -0.440  1.00  0.00     0.000 A 
ATOM     19  C   UNL     1      -2.057  -0.009  -1.689  1.00  0.00     0.010 A 
ATOM     20  C   UNL     1      -3.410   1.369  -0.226  1.00  0.00     0.010 A 
ATOM     21  C   UNL     1      -3.004   0.146  -2.704  1.00  0.00     0.001 A 
ATOM     22  C   UNL     1      -4.353   1.521  -1.244  1.00  0.00     0.001 A 
ATOM     23  C   UNL     1      -4.152   0.906  -2.479  1.00  0.00     0.000 A 
ENDBRANCH  16  18
BRANCH  17  24
ATOM     24  C   UNL     1      -0.041   1.363   2.452  1.00  0.00     0.243 CG0
ATOM     25  G   UNL     1       1.315   1.369   1.758  1.00  0.00     0.000 G0
ENDBRANCH  17  24
ENDBRANCH   1  16
TORSDOF 3
