REMARK SMILES CN1C(=O)CC(C)(c2ccccc2)C1=O
REMARK SMILES IDX 1 1 2 2 3 3 4 4 5 5 6 6 7 7 14 8 15 9 8 10 9 11 13 12 10 13
REMARK SMILES IDX 12 14 11 15
REMARK H PARENT
REMARK Flexibility Score: inf
ROOT
ATOM      1  C   UNL     1      -3.572   1.302   0.111  1.00  0.00     0.156 C 
ATOM      2  N   UNL     1      -2.396   0.477  -0.023  1.00  0.00    -0.285 N 
ATOM      3  C   UNL     1      -2.386  -0.710  -0.686  1.00  0.00     0.230 C 
ATOM      4  O   UNL     1      -3.331  -1.242  -1.249  1.00  0.00    -0.274 OA
ATOM      5  C   UNL     1      -1.004  -1.284  -0.638  1.00  0.00     0.122 C 
ATOM      6  C   UNL     1      -0.258  -0.432   0.408  1.00  0.00     0.081 C 
ATOM      7  C   UNL     1      -0.125  -1.199   1.738  1.00  0.00     0.027 C 
ATOM      8  C   UNL     1      -1.240   0.709   0.666  1.00  0.00     0.239 C 
ATOM      9  O   UNL     1      -1.057   1.646   1.433  1.00  0.00    -0.273 OA
ENDROOT
BRANCH   6  10
ATOM     10  C   UNL     1       1.122  -0.028  -0.116  1.00  0.00    -0.032 A 
ATOM     11  C   UNL     1       1.525   1.309  -0.253  1.00  0.00     0.005 A 
ATOM     12  C   UNL     1       2.044  -1.029  -0.487  1.00  0.00     0.005 A 
ATOM     13  C   UNL     1       2.794   1.633  -0.744  1.00  0.00     0.000 A 
ATOM     14  C   UNL     1       3.310  -0.704  -0.978  1.00  0.00     0.000 A 
ATOM     15  C   UNL     1       3.686   0.629  -1.107  1.00  0.00     0.000 A 
ENDBRANCH   6  10
TORSDOF 1
