REMARK SMILES Cc1ccc(S(=O)(=O)NC(=O)NN2CC3CCCC3C2)cc1
REMARK SMILES IDX 9 1 10 2 11 3 12 4 6 7 7 8 8 9 5 10 1 11 2 12 3 13 22 14
REMARK SMILES IDX 4 15 21 16 13 17 14 18 20 19 15 20 19 21 16 22 18 23 17 24
REMARK H PARENT 9 5 12 6
REMARK Flexibility Score: inf
ROOT
ATOM      1  N   UNL     1       0.855  -1.229  -1.897  1.00  0.00    -0.230 N 
ATOM      2  C   UNL     1       0.161  -1.411  -0.707  1.00  0.00     0.343 C 
ATOM      3  O   UNL     1       0.636  -1.993   0.255  1.00  0.00    -0.246 OA
ATOM      4  N   UNL     1      -1.094  -0.833  -0.748  1.00  0.00    -0.270 N 
ATOM      5  H   UNL     1       0.483  -0.678  -2.656  1.00  0.00     0.185 HD
ATOM      6  H   UNL     1      -1.435  -0.461  -1.624  1.00  0.00     0.187 HD
ENDROOT
BRANCH   1   7
ATOM      7  S   UNL     1       2.371  -1.821  -2.217  1.00  0.00     0.265 S 
ATOM      8  O   UNL     1       2.704  -1.291  -3.526  1.00  0.00    -0.201 OA
ATOM      9  O   UNL     1       2.400  -3.246  -1.976  1.00  0.00    -0.201 OA
BRANCH   7  10
ATOM     10  C   UNL     1       3.408  -0.999  -1.036  1.00  0.00     0.087 A 
ATOM     11  C   UNL     1       5.992   0.958   1.784  1.00  0.00     0.044 C 
ATOM     12  C   UNL     1       5.112   0.264   0.786  1.00  0.00    -0.051 A 
ATOM     13  C   UNL     1       4.579  -1.001   1.073  1.00  0.00     0.005 A 
ATOM     14  C   UNL     1       4.776   0.894  -0.420  1.00  0.00     0.005 A 
ATOM     15  C   UNL     1       3.739  -1.639   0.159  1.00  0.00     0.022 A 
ATOM     16  C   UNL     1       3.934   0.261  -1.337  1.00  0.00     0.022 A 
ENDBRANCH   7  10
ENDBRANCH   1   7
BRANCH   4  17
ATOM     17  N   UNL     1      -1.984  -0.976   0.343  1.00  0.00    -0.219 NA
ATOM     18  C   UNL     1      -1.946   0.205   1.223  1.00  0.00     0.112 C 
ATOM     19  C   UNL     1      -3.388  -1.053  -0.089  1.00  0.00     0.112 C 
ATOM     20  C   UNL     1      -2.863   1.230   0.556  1.00  0.00     0.009 C 
ATOM     21  C   UNL     1      -3.826   0.395  -0.305  1.00  0.00     0.009 C 
ATOM     22  C   UNL     1      -3.739   2.016   1.529  1.00  0.00     0.005 C 
ATOM     23  C   UNL     1      -5.233   0.708   0.203  1.00  0.00     0.005 C 
ATOM     24  C   UNL     1      -5.023   1.202   1.627  1.00  0.00     0.001 C 
ENDBRANCH   4  17
TORSDOF 3
