REMARK SMILES CC(=O)c1c(C)c2cnc(Nc3ccc(N4CCNCC4)cn3)nc2n(C2CCCC2)c1=O
REMARK SMILES IDX 11 1 10 3 4 4 5 5 32 6 6 7 7 8 26 9 33 10 8 11 25 12 9 13
REMARK SMILES IDX 24 14 2 15 1 16 3 17 27 18 28 19 31 20 29 21 30 22 12 23
REMARK SMILES IDX 23 24 13 25 22 26 14 27 15 28 16 29 17 30 21 31 18 32 20 33
REMARK SMILES IDX 19 34
REMARK H PARENT 11 2 19 35
REMARK Flexibility Score: inf
ROOT
ATOM      1  N   UNL     1       0.877  -0.365  -0.443  1.00  0.00    -0.309 N 
ATOM      2  H   UNL     1       0.631  -0.872  -1.278  1.00  0.00     0.171 HD
ENDROOT
BRANCH   1   3
ATOM      3  C   UNL     1      -0.229   0.043   0.277  1.00  0.00     0.230 A 
ATOM      4  C   UNL     1      -4.941   0.811   1.723  1.00  0.00     0.086 C 
ATOM      5  C   UNL     1      -3.769   1.204   2.264  1.00  0.00    -0.022 C 
ATOM      6  C   UNL     1      -4.996   0.034   0.449  1.00  0.00     0.263 C 
ATOM      7  C   UNL     1      -3.638   2.050   3.507  1.00  0.00     0.046 C 
ATOM      8  C   UNL     1      -2.527   0.796   1.582  1.00  0.00     0.040 A 
ATOM      9  N   UNL     1      -3.796  -0.322  -0.151  1.00  0.00    -0.289 N 
ATOM     10  O   UNL     1      -6.097  -0.256  -0.018  1.00  0.00    -0.268 OA
ATOM     11  C   UNL     1      -1.256   1.089   2.038  1.00  0.00     0.127 A 
ATOM     12  C   UNL     1      -2.545   0.065   0.406  1.00  0.00     0.148 A 
ATOM     13  N   UNL     1      -0.116   0.733   1.414  1.00  0.00    -0.221 NA
ATOM     14  N   UNL     1      -1.416  -0.299  -0.241  1.00  0.00    -0.194 NA
BRANCH   4  15
ATOM     15  C   UNL     1      -6.230   1.152   2.399  1.00  0.00     0.165 C 
ATOM     16  C   UNL     1      -7.298   1.839   1.588  1.00  0.00     0.094 C 
ATOM     17  O   UNL     1      -6.404   0.883   3.588  1.00  0.00    -0.294 OA
ENDBRANCH   4  15
BRANCH   9  18
ATOM     18  C   UNL     1      -3.797  -1.083  -1.413  1.00  0.00     0.092 C 
ATOM     19  C   UNL     1      -4.375  -0.295  -2.599  1.00  0.00     0.025 C 
ATOM     20  C   UNL     1      -4.586  -2.410  -1.363  1.00  0.00     0.025 C 
ATOM     21  C   UNL     1      -4.979  -1.365  -3.495  1.00  0.00     0.002 C 
ATOM     22  C   UNL     1      -5.597  -2.338  -2.503  1.00  0.00     0.002 C 
ENDBRANCH   9  18
ENDBRANCH   1   3
BRANCH   1  23
ATOM     23  C   UNL     1       2.243  -0.237  -0.289  1.00  0.00     0.132 A 
ATOM     24  N   UNL     1       2.979  -0.800  -1.267  1.00  0.00    -0.237 NA
ATOM     25  C   UNL     1       2.859   0.410   0.770  1.00  0.00     0.049 A 
ATOM     26  C   UNL     1       4.335  -0.712  -1.179  1.00  0.00     0.139 A 
ATOM     27  C   UNL     1       4.258   0.480   0.830  1.00  0.00     0.031 A 
ATOM     28  C   UNL     1       5.059  -0.092  -0.158  1.00  0.00     0.055 A 
BRANCH  28  29
ATOM     29  N   UNL     1       6.440  -0.038  -0.131  1.00  0.00    -0.368 N 
ATOM     30  C   UNL     1       7.168   0.860   0.782  1.00  0.00     0.132 C 
ATOM     31  C   UNL     1       7.253  -1.010  -0.881  1.00  0.00     0.132 C 
ATOM     32  C   UNL     1       8.588   1.149   0.243  1.00  0.00     0.102 C 
ATOM     33  C   UNL     1       8.624  -1.244  -0.204  1.00  0.00     0.102 C 
ATOM     34  N   UNL     1       9.437  -0.037   0.023  1.00  0.00    -0.313 NA
ATOM     35  H   UNL     1      10.025   0.137  -0.791  1.00  0.00     0.122 HD
ENDBRANCH  28  29
ENDBRANCH   1  23
TORSDOF 5
