REMARK SMILES CC1(C)S[C@@H]2[C@H](NC(=O)[C@H](N)c3ccccc3)C(=O)N2[C@H]1C(=O)OC1OC(=O)c2ccccc21
REMARK SMILES IDX 1 1 2 2 3 3 4 4 5 5 6 6 18 7 19 8 20 9 21 10 22 11 23 12
REMARK SMILES IDX 24 13 25 14 26 15 34 16 27 17 29 18 33 19 28 20 30 21 32 22
REMARK SMILES IDX 31 23 7 24 8 25 9 27 10 28 11 29 12 32 13 33 17 34 14 35
REMARK SMILES IDX 16 36 15 37
REMARK H PARENT 7 26 11 30 11 31
REMARK Flexibility Score: inf
ROOT
ATOM      1  C   UNL     1       0.837   1.121   1.514  1.00  0.00     0.026 C 
ATOM      2  C   UNL     1       0.159   0.173   0.516  1.00  0.00     0.044 C 
ATOM      3  C   UNL     1      -0.397  -1.033   1.291  1.00  0.00     0.026 C 
ATOM      4  S   UNL     1      -1.280   1.055  -0.238  1.00  0.00    -0.125 SA
ATOM      5  C   UNL     1      -0.940   0.486  -1.951  1.00  0.00     0.176 C 
ATOM      6  C   UNL     1      -1.754  -0.724  -2.488  1.00  0.00     0.205 C 
ATOM      7  C   UNL     1      -0.514  -1.545  -2.061  1.00  0.00     0.250 C 
ATOM      8  O   UNL     1      -0.262  -2.707  -1.839  1.00  0.00    -0.272 OA
ATOM      9  N   UNL     1       0.221  -0.417  -1.841  1.00  0.00    -0.311 N 
ATOM     10  C   UNL     1       1.058  -0.283  -0.655  1.00  0.00     0.212 C 
ENDROOT
BRANCH  10  11
ATOM     11  C   UNL     1       2.187   0.694  -0.990  1.00  0.00     0.333 C 
ATOM     12  O   UNL     1       2.092   1.659  -1.737  1.00  0.00    -0.250 OA
BRANCH  11  13
ATOM     13  O   UNL     1       3.316   0.338  -0.319  1.00  0.00    -0.419 OA
BRANCH  13  14
ATOM     14  C   UNL     1       4.395   1.252  -0.473  1.00  0.00     0.403 C 
ATOM     15  O   UNL     1       4.343   2.279   0.537  1.00  0.00    -0.417 OA
ATOM     16  C   UNL     1       5.660   0.542  -0.174  1.00  0.00     0.047 A 
ATOM     17  C   UNL     1       5.427   2.238   1.365  1.00  0.00     0.342 C 
ATOM     18  C   UNL     1       6.265   1.138   0.912  1.00  0.00     0.070 A 
ATOM     19  C   UNL     1       6.254  -0.543  -0.799  1.00  0.00     0.012 A 
ATOM     20  O   UNL     1       5.649   2.974   2.304  1.00  0.00    -0.246 OA
ATOM     21  C   UNL     1       7.470   0.700   1.431  1.00  0.00     0.016 A 
ATOM     22  C   UNL     1       7.474  -1.009  -0.297  1.00  0.00     0.001 A 
ATOM     23  C   UNL     1       8.079  -0.392   0.811  1.00  0.00     0.001 A 
ENDBRANCH  13  14
ENDBRANCH  11  13
ENDBRANCH  10  11
BRANCH   6  24
ATOM     24  N   UNL     1      -3.021  -1.086  -1.801  1.00  0.00    -0.340 N 
ATOM     25  C   UNL     1      -4.151  -0.302  -1.928  1.00  0.00     0.242 C 
ATOM     26  H   UNL     1      -3.029  -1.835  -1.118  1.00  0.00     0.164 HD
ATOM     27  O   UNL     1      -4.165   0.709  -2.631  1.00  0.00    -0.273 OA
BRANCH  25  28
ATOM     28  C   UNL     1      -5.370  -0.796  -1.101  1.00  0.00     0.172 C 
BRANCH  28  29
ATOM     29  N   UNL     1      -6.616  -0.226  -1.642  1.00  0.00    -0.316 NA
ATOM     30  H   UNL     1      -6.441   0.761  -1.843  1.00  0.00     0.119 HD
ATOM     31  H   UNL     1      -7.332  -0.249  -0.919  1.00  0.00     0.119 HD
ENDBRANCH  28  29
BRANCH  28  32
ATOM     32  C   UNL     1      -5.213  -0.479   0.374  1.00  0.00    -0.022 A 
ATOM     33  C   UNL     1      -5.388  -1.491   1.331  1.00  0.00     0.006 A 
ATOM     34  C   UNL     1      -4.915   0.820   0.816  1.00  0.00     0.006 A 
ATOM     35  C   UNL     1      -5.246  -1.215   2.693  1.00  0.00     0.000 A 
ATOM     36  C   UNL     1      -4.770   1.092   2.177  1.00  0.00     0.000 A 
ATOM     37  C   UNL     1      -4.934   0.075   3.115  1.00  0.00     0.000 A 
ENDBRANCH  28  32
ENDBRANCH  25  28
ENDBRANCH   6  24
TORSDOF 7
