REMARK SMILES CCC1(c2ccccc2)C(=O)NCNC1=O
REMARK SMILES IDX 3 1 10 2 11 3 12 4 13 5 14 6 15 7 16 8 2 11 1 12 4 13 5 14
REMARK SMILES IDX 9 15 6 16 8 17 7 18
REMARK H PARENT 12 9 14 10
REMARK Flexibility Score: inf
ROOT
ATOM      1  C   UNL     1      -0.516   0.456   0.117  1.00  0.00     0.152 C 
ATOM      2  C   UNL     1      -1.402  -0.407   1.049  1.00  0.00     0.241 C 
ATOM      3  O   UNL     1      -1.507  -0.236   2.263  1.00  0.00    -0.273 OA
ATOM      4  N   UNL     1      -2.053  -1.463   0.468  1.00  0.00    -0.337 N 
ATOM      5  C   UNL     1      -1.801  -1.827  -0.882  1.00  0.00     0.236 C 
ATOM      6  N   UNL     1      -1.825  -0.652  -1.680  1.00  0.00    -0.337 N 
ATOM      7  C   UNL     1      -1.152   0.478  -1.294  1.00  0.00     0.241 C 
ATOM      8  O   UNL     1      -1.043   1.409  -2.092  1.00  0.00    -0.273 OA
ATOM      9  H   UNL     1      -2.530  -2.093   1.100  1.00  0.00     0.165 HD
ATOM     10  H   UNL     1      -2.131  -0.678  -2.644  1.00  0.00     0.165 HD
ENDROOT
BRANCH   1  11
ATOM     11  C   UNL     1      -0.400   1.900   0.675  1.00  0.00     0.028 C 
ATOM     12  C   UNL     1      -1.726   2.645   0.815  1.00  0.00     0.006 C 
ENDBRANCH   1  11
BRANCH   1  13
ATOM     13  C   UNL     1       0.930  -0.121   0.053  1.00  0.00    -0.023 A 
ATOM     14  C   UNL     1       1.499  -0.788   1.156  1.00  0.00     0.005 A 
ATOM     15  C   UNL     1       1.738   0.059  -1.086  1.00  0.00     0.005 A 
ATOM     16  C   UNL     1       2.801  -1.293   1.102  1.00  0.00     0.000 A 
ATOM     17  C   UNL     1       3.040  -0.448  -1.137  1.00  0.00     0.000 A 
ATOM     18  C   UNL     1       3.568  -1.129  -0.046  1.00  0.00     0.000 A 
ENDBRANCH   1  13
TORSDOF 2
