REMARK SMILES Cc1c(OCC(F)(F)F)ccnc1C[S@@+]([O-])c1nc2ccccc2[nH]1
REMARK SMILES IDX 1 1 2 2 3 3 10 4 11 5 12 6 13 7 4 8 5 9 6 10 7 11 8 12 9 13
REMARK SMILES IDX 14 14 15 15 16 16 17 17 18 18 25 19 19 20 24 21 20 23 23 24
REMARK SMILES IDX 21 25 22 26
REMARK H PARENT 25 22
REMARK Flexibility Score: inf
ROOT
ATOM      1  C   UNL     1      -1.358   1.201   1.549  1.00  0.00     0.050 C 
ATOM      2  C   UNL     1      -2.093   0.473   0.452  1.00  0.00     0.017 A 
ATOM      3  C   UNL     1      -3.472   0.680   0.251  1.00  0.00     0.126 A 
ATOM      4  C   UNL     1      -4.135  -0.030  -0.748  1.00  0.00     0.067 A 
ATOM      5  C   UNL     1      -3.402  -0.910  -1.522  1.00  0.00     0.115 A 
ATOM      6  N   UNL     1      -2.081  -1.121  -1.370  1.00  0.00    -0.256 NA
ATOM      7  C   UNL     1      -1.427  -0.417  -0.406  1.00  0.00     0.097 A 
ENDROOT
BRANCH   3   8
ATOM      8  O   UNL     1      -4.078   1.577   1.090  1.00  0.00    -0.484 OA
BRANCH   8   9
ATOM      9  C   UNL     1      -5.422   1.981   0.794  1.00  0.00     0.344 C 
BRANCH   9  10
ATOM     10  C   UNL     1      -5.881   3.042   1.780  1.00  0.00     0.422 C 
ATOM     11  F   UNL     1      -5.911   2.568   3.044  1.00  0.00    -0.167 F 
ATOM     12  F   UNL     1      -5.078   4.132   1.763  1.00  0.00    -0.167 F 
ATOM     13  F   UNL     1      -7.133   3.463   1.478  1.00  0.00    -0.167 F 
ENDBRANCH   9  10
ENDBRANCH   8   9
ENDBRANCH   3   8
BRANCH   7  14
ATOM     14  C   UNL     1       0.051  -0.699  -0.295  1.00  0.00     0.342 C 
BRANCH  14  15
ATOM     15  S   UNL     1       0.914  -0.341  -1.859  1.00  0.00     0.030 S 
ATOM     16  O   UNL     1       0.951   1.308  -2.106  1.00  0.00    -0.609 OA
BRANCH  15  17
ATOM     17  C   UNL     1       2.574  -0.739  -1.273  1.00  0.00     0.322 A 
ATOM     18  N   UNL     1       2.882  -1.699  -0.429  1.00  0.00    -0.184 NA
ATOM     19  N   UNL     1       3.679  -0.038  -1.670  1.00  0.00    -0.297 N 
ATOM     20  C   UNL     1       4.246  -1.608  -0.274  1.00  0.00     0.094 A 
ATOM     21  C   UNL     1       4.772  -0.583  -1.054  1.00  0.00     0.069 A 
ATOM     22  H   UNL     1       3.663   0.733  -2.324  1.00  0.00     0.173 HD
ATOM     23  C   UNL     1       5.110  -2.383   0.513  1.00  0.00     0.031 A 
ATOM     24  C   UNL     1       6.133  -0.278  -1.104  1.00  0.00     0.028 A 
ATOM     25  C   UNL     1       6.480  -2.089   0.491  1.00  0.00     0.002 A 
ATOM     26  C   UNL     1       6.981  -1.055  -0.306  1.00  0.00     0.002 A 
ENDBRANCH  15  17
ENDBRANCH  14  15
ENDBRANCH   7  14
TORSDOF 6
