REMARK SMILES Cc1cc(CC(=O)O)n(C)c1C(=O)c1ccc(Cl)cc1
REMARK SMILES IDX 1 1 2 2 3 3 4 4 9 5 10 6 11 7 12 8 13 9 14 10 15 11 20 12
REMARK SMILES IDX 16 13 19 14 17 15 18 16 5 17 6 18 7 19 8 20
REMARK H PARENT 8 21
REMARK Flexibility Score: inf
ROOT
ATOM      1  C   UNL     1       0.817  -2.128  -1.433  1.00  0.00     0.047 C 
ATOM      2  C   UNL     1      -0.281  -1.194  -1.056  1.00  0.00    -0.022 A 
ATOM      3  C   UNL     1      -1.629  -1.579  -0.836  1.00  0.00     0.028 A 
ATOM      4  C   UNL     1      -2.370  -0.447  -0.566  1.00  0.00     0.029 A 
ATOM      5  N   UNL     1      -1.508   0.627  -0.629  1.00  0.00    -0.344 N 
ATOM      6  C   UNL     1      -1.855   2.023  -0.433  1.00  0.00     0.150 C 
ATOM      7  C   UNL     1      -0.215   0.186  -0.875  1.00  0.00     0.092 A 
ENDROOT
BRANCH   7   8
ATOM      8  C   UNL     1       0.933   1.078  -0.962  1.00  0.00     0.209 C 
ATOM      9  O   UNL     1       0.891   2.166  -1.535  1.00  0.00    -0.287 OA
BRANCH   8  10
ATOM     10  C   UNL     1       2.216   0.695  -0.306  1.00  0.00     0.024 A 
ATOM     11  C   UNL     1       3.421   1.124  -0.880  1.00  0.00     0.014 A 
ATOM     12  C   UNL     1       2.237  -0.036   0.890  1.00  0.00     0.014 A 
ATOM     13  C   UNL     1       4.639   0.796  -0.279  1.00  0.00     0.021 A 
ATOM     14  C   UNL     1       3.457  -0.362   1.489  1.00  0.00     0.021 A 
ATOM     15  C   UNL     1       4.652   0.052   0.900  1.00  0.00     0.041 A 
ATOM     16  Cl  UNL     1       6.151  -0.351   1.640  1.00  0.00    -0.084 Cl
ENDBRANCH   8  10
ENDBRANCH   7   8
BRANCH   4  17
ATOM     17  C   UNL     1      -3.839  -0.345  -0.279  1.00  0.00     0.176 C 
BRANCH  17  18
ATOM     18  C   UNL     1      -4.114  -0.126   1.193  1.00  0.00     0.309 C 
ATOM     19  O   UNL     1      -3.355   0.293   2.052  1.00  0.00    -0.252 OA
BRANCH  18  20
ATOM     20  O   UNL     1      -5.399  -0.400   1.511  1.00  0.00    -0.481 OA
ATOM     21  H   UNL     1      -5.447  -0.210   2.472  1.00  0.00     0.296 HD
ENDBRANCH  18  20
ENDBRANCH  17  18
ENDBRANCH   4  17
TORSDOF 5
