REMARK SMILES O=C(c1ccc(F)cc1)C1CCN(CCn2c(=O)[nH]c3ccccc3c2=O)CC1
REMARK SMILES IDX 10 1 11 2 12 3 13 4 28 5 29 6 2 7 1 8 3 9 4 10 9 11 5 12
REMARK SMILES IDX 8 13 6 14 7 15 14 16 15 17 16 18 17 19 26 20 18 21 19 22
REMARK SMILES IDX 25 23 27 24 20 25 24 27 21 28 23 29 22 30
REMARK H PARENT 19 26
REMARK Flexibility Score: inf
ROOT
ATOM      1  C   UNL     1      -3.249   1.569   0.643  1.00  0.00     0.064 C 
ATOM      2  C   UNL     1      -2.653   0.615   1.696  1.00  0.00     0.027 C 
ATOM      3  C   UNL     1      -1.135   0.741   1.852  1.00  0.00     0.085 C 
ATOM      4  N   UNL     1      -0.521   0.769   0.529  1.00  0.00    -0.302 NA
ATOM      5  C   UNL     1      -0.879   1.986  -0.218  1.00  0.00     0.085 C 
ATOM      6  C   UNL     1      -2.211   2.615   0.215  1.00  0.00     0.027 C 
ENDROOT
BRANCH   1   7
ATOM      7  C   UNL     1      -3.816   0.826  -0.575  1.00  0.00     0.166 C 
ATOM      8  O   UNL     1      -3.448   1.066  -1.725  1.00  0.00    -0.294 OA
BRANCH   7   9
ATOM      9  C   UNL     1      -4.899  -0.189  -0.387  1.00  0.00     0.018 A 
ATOM     10  C   UNL     1      -5.101  -1.138  -1.403  1.00  0.00     0.015 A 
ATOM     11  C   UNL     1      -5.723  -0.209   0.747  1.00  0.00     0.015 A 
ATOM     12  C   UNL     1      -6.101  -2.103  -1.279  1.00  0.00     0.040 A 
ATOM     13  C   UNL     1      -6.724  -1.178   0.867  1.00  0.00     0.040 A 
ATOM     14  C   UNL     1      -6.903  -2.115  -0.145  1.00  0.00     0.123 A 
ATOM     15  F   UNL     1      -7.864  -3.039  -0.024  1.00  0.00    -0.207 F 
ENDBRANCH   7   9
ENDBRANCH   1   7
BRANCH   4  16
ATOM     16  C   UNL     1       0.938   0.570   0.600  1.00  0.00     0.106 C 
BRANCH  16  17
ATOM     17  C   UNL     1       1.599   0.331  -0.773  1.00  0.00     0.146 C 
BRANCH  17  18
ATOM     18  N   UNL     1       3.043   0.141  -0.651  1.00  0.00    -0.259 N 
ATOM     19  C   UNL     1       3.840   1.274  -0.624  1.00  0.00     0.328 C 
ATOM     20  C   UNL     1       3.516  -1.152  -0.441  1.00  0.00     0.264 C 
ATOM     21  O   UNL     1       3.409   2.424  -0.689  1.00  0.00    -0.248 OA
ATOM     22  N   UNL     1       5.186   1.076  -0.502  1.00  0.00    -0.307 N 
ATOM     23  C   UNL     1       4.979  -1.314  -0.333  1.00  0.00     0.064 A 
ATOM     24  O   UNL     1       2.796  -2.141  -0.328  1.00  0.00    -0.268 OA
ATOM     25  C   UNL     1       5.778  -0.176  -0.371  1.00  0.00     0.055 A 
ATOM     26  H   UNL     1       5.750   1.916  -0.503  1.00  0.00     0.171 HD
ATOM     27  C   UNL     1       5.560  -2.578  -0.189  1.00  0.00     0.016 A 
ATOM     28  C   UNL     1       7.164  -0.287  -0.265  1.00  0.00     0.027 A 
ATOM     29  C   UNL     1       6.947  -2.692  -0.085  1.00  0.00     0.001 A 
ATOM     30  C   UNL     1       7.747  -1.549  -0.123  1.00  0.00     0.002 A 
ENDBRANCH  17  18
ENDBRANCH  16  17
ENDBRANCH   4  16
TORSDOF 5
