REMARK SMILES CCC1(C)OC(=O)N(C)C1=O
REMARK SMILES IDX 3 1 4 2 5 3 6 4 7 5 8 6 9 7 10 8 11 9 2 10 1 11
REMARK H PARENT
REMARK Flexibility Score: inf
ROOT
ATOM      1  C   UNL     1      -0.576   0.193   0.647  1.00  0.00     0.189 C 
ATOM      2  C   UNL     1      -0.688   0.879   2.005  1.00  0.00     0.068 C 
ATOM      3  O   UNL     1      -0.226  -1.183   0.859  1.00  0.00    -0.433 OA
ATOM      4  C   UNL     1       1.039  -1.396   0.393  1.00  0.00     0.417 C 
ATOM      5  O   UNL     1       1.587  -2.486   0.432  1.00  0.00    -0.224 OA
ATOM      6  N   UNL     1       1.551  -0.256  -0.119  1.00  0.00    -0.247 N 
ATOM      7  C   UNL     1       2.830  -0.164  -0.773  1.00  0.00     0.160 C 
ATOM      8  C   UNL     1       0.621   0.731  -0.104  1.00  0.00     0.275 C 
ATOM      9  O   UNL     1       0.719   1.843  -0.598  1.00  0.00    -0.270 OA
ENDROOT
BRANCH   1  10
ATOM     10  C   UNL     1      -1.877   0.304  -0.155  1.00  0.00     0.055 C 
ATOM     11  C   UNL     1      -1.866  -0.465  -1.472  1.00  0.00     0.009 C 
ENDBRANCH   1  10
TORSDOF 1
