REMARK SMILES COc1ccc(NS(=O)(=O)c2ccc(N)cc2)nn1
REMARK SMILES IDX 8 1 9 2 10 3 7 4 6 6 3 7 4 8 19 9 5 10 18 11 2 12 1 13 11 14
REMARK SMILES IDX 12 15 17 16 13 17 16 18 14 19 15 20
REMARK H PARENT 7 5 15 21 15 22
REMARK Flexibility Score: inf
ROOT
ATOM      1  S   UNL     1      -1.349  -2.661   0.211  1.00  0.00     0.263 S 
ATOM      2  O   UNL     1      -1.776  -3.680  -0.725  1.00  0.00    -0.201 OA
ATOM      3  O   UNL     1      -1.891  -2.606   1.552  1.00  0.00    -0.201 OA
ENDROOT
BRANCH   1   4
ATOM      4  N   UNL     1       0.328  -2.772   0.304  1.00  0.00    -0.262 N 
ATOM      5  H   UNL     1       0.734  -2.974  -0.608  1.00  0.00     0.182 HD
BRANCH   4   6
ATOM      6  C   UNL     1       0.995  -1.719   0.960  1.00  0.00     0.162 A 
ATOM      7  C   UNL     1       2.319   0.392   1.976  1.00  0.00     0.233 A 
ATOM      8  C   UNL     1       1.560  -0.380   2.836  1.00  0.00     0.074 A 
ATOM      9  N   UNL     1       2.419   0.113   0.657  1.00  0.00    -0.110 NA
ATOM     10  C   UNL     1       0.876  -1.471   2.313  1.00  0.00     0.055 A 
ATOM     11  N   UNL     1       1.748  -0.959   0.142  1.00  0.00    -0.128 NA
BRANCH   7  12
ATOM     12  O   UNL     1       2.981   1.470   2.524  1.00  0.00    -0.480 OA
ATOM     13  C   UNL     1       3.714   2.221   1.561  1.00  0.00     0.280 C 
ENDBRANCH   7  12
ENDBRANCH   4   6
ENDBRANCH   1   4
BRANCH   1  14
ATOM     14  C   UNL     1      -1.627  -1.084  -0.562  1.00  0.00     0.088 A 
ATOM     15  C   UNL     1      -2.004   0.016   0.210  1.00  0.00     0.024 A 
ATOM     16  C   UNL     1      -1.492  -0.966  -1.947  1.00  0.00     0.024 A 
ATOM     17  C   UNL     1      -2.232   1.246  -0.413  1.00  0.00     0.027 A 
ATOM     18  C   UNL     1      -1.724   0.270  -2.556  1.00  0.00     0.027 A 
ATOM     19  C   UNL     1      -2.142   1.372  -1.803  1.00  0.00     0.031 A 
BRANCH  19  20
ATOM     20  N   UNL     1      -2.256   2.631  -2.403  1.00  0.00    -0.399 N 
ATOM     21  H   UNL     1      -2.844   3.281  -1.892  1.00  0.00     0.156 HD
ATOM     22  H   UNL     1      -2.486   2.599  -3.391  1.00  0.00     0.156 HD
ENDBRANCH  19  20
ENDBRANCH   1  14
TORSDOF 5
