REMARK SMILES CNCc1ccc(-c2[nH]c3cc(F)cc4c3c2CCNC4=O)cc1
REMARK SMILES IDX 8 1 9 2 10 3 11 4 12 5 13 6 14 7 15 8 16 9 17 10 7 12 4 13
REMARK SMILES IDX 5 14 24 15 6 16 23 17 3 18 2 19 1 20 18 22 21 24 20 25 22 26
REMARK SMILES IDX 19 28
REMARK H PARENT 9 11 2 21 20 27
REMARK Flexibility Score: 90.00
ROOT
ATOM      1  C   UNL     1      -0.682   0.547   0.313  1.00  0.00     0.050 A 
ATOM      2  N   UNL     1      -1.038   1.692   0.984  1.00  0.00    -0.354 N 
ATOM      3  C   UNL     1      -2.393   1.728   1.208  1.00  0.00     0.050 A 
ATOM      4  C   UNL     1      -3.163   2.700   1.854  1.00  0.00     0.066 A 
ATOM      5  C   UNL     1      -4.530   2.465   1.953  1.00  0.00     0.126 A 
ATOM      6  F   UNL     1      -5.301   3.372   2.569  1.00  0.00    -0.207 F 
ATOM      7  C   UNL     1      -5.114   1.318   1.439  1.00  0.00     0.053 A 
ATOM      8  C   UNL     1      -4.333   0.347   0.784  1.00  0.00     0.052 A 
ATOM      9  C   UNL     1      -2.938   0.561   0.667  1.00  0.00     0.016 A 
ATOM     10  C   UNL     1      -1.850  -0.170   0.088  1.00  0.00    -0.012 A 
ATOM     11  H   UNL     1      -0.385   2.399   1.291  1.00  0.00     0.167 HD
ENDROOT
BRANCH   1  12
ATOM     12  C   UNL     1       0.709   0.259  -0.026  1.00  0.00    -0.002 A 
ATOM     13  C   UNL     1       3.401  -0.296  -0.660  1.00  0.00    -0.034 A 
ATOM     14  C   UNL     1       2.809   0.914  -1.051  1.00  0.00     0.006 A 
ATOM     15  C   UNL     1       2.633  -1.222   0.057  1.00  0.00     0.006 A 
ATOM     16  C   UNL     1       1.475   1.189  -0.737  1.00  0.00     0.010 A 
ATOM     17  C   UNL     1       1.298  -0.947   0.369  1.00  0.00     0.010 A 
BRANCH  13  18
ATOM     18  C   UNL     1       4.846  -0.582  -0.998  1.00  0.00     0.116 C 
BRANCH  18  19
ATOM     19  N   UNL     1       5.739   0.288  -0.234  1.00  0.00    -0.316 NA
ATOM     20  C   UNL     1       7.134  -0.019  -0.516  1.00  0.00     0.101 C 
ATOM     21  H   UNL     1       5.555   0.155   0.760  1.00  0.00     0.122 HD
ENDBRANCH  18  19
ENDBRANCH  13  18
ENDBRANCH   1  12
BRANCH  10  22
ATOM     22  C   UNL     1      -1.985  -1.460  -0.652  1.00  0.00     0.059 CG0
ATOM     23  G   UNL     1      -3.290  -1.529  -1.438  1.00  0.00     0.000 G0
ENDBRANCH  10  22
BRANCH   8  24
ATOM     24  C   UNL     1      -5.022  -0.876   0.305  1.00  0.00     0.252 C 
ATOM     25  N   UNL     1      -4.453  -1.737  -0.596  1.00  0.00    -0.352 N 
ATOM     26  O   UNL     1      -6.150  -1.140   0.722  1.00  0.00    -0.269 OA
ATOM     27  H   UNL     1      -5.089  -2.483  -0.854  1.00  0.00     0.163 HD
BRANCH  25  28
ATOM     28  C   UNL     1      -3.290  -1.529  -1.438  1.00  0.00     0.121 CG0
ATOM     29  G   UNL     1      -1.985  -1.460  -0.652  1.00  0.00     0.000 G0
ENDBRANCH  25  28
ENDBRANCH   8  24
TORSDOF 3
