REMARK SMILES C[N+]1(C)CCN(CC(O)(c2ccccc2)C2CCCCC2)CC1
REMARK SMILES IDX 7 1 6 2 1 3 2 4 3 5 4 6 23 7 5 8 22 9 8 10 9 11 10 13 11 14
REMARK SMILES IDX 15 15 12 16 14 17 13 18 16 19 17 20 21 21 18 22 20 23 19 24
REMARK H PARENT 9 12
REMARK Flexibility Score: inf
ROOT
ATOM      1  C   UNL     1      -0.231   0.417  -0.533  1.00  0.00     0.125 C 
ENDROOT
BRANCH   1   2
ATOM      2  N   UNL     1       1.212   0.026  -0.555  1.00  0.00    -0.289 NA
ATOM      3  C   UNL     1       5.535   0.201  -0.790  1.00  0.00     0.334 C 
ATOM      4  N   UNL     1       4.068  -0.148  -0.609  1.00  0.00    -0.326 N 
ATOM      5  C   UNL     1       3.971  -1.595  -0.134  1.00  0.00     0.334 C 
ATOM      6  C   UNL     1       3.446   0.795   0.437  1.00  0.00     0.279 C 
ATOM      7  C   UNL     1       3.318   0.010  -1.955  1.00  0.00     0.279 C 
ATOM      8  C   UNL     1       1.931   0.533   0.636  1.00  0.00     0.146 C 
ATOM      9  C   UNL     1       1.858   0.507  -1.785  1.00  0.00     0.146 C 
ENDBRANCH   1   2
BRANCH   1  10
ATOM     10  C   UNL     1      -1.197  -0.237   0.540  1.00  0.00     0.105 C 
BRANCH  10  11
ATOM     11  O   UNL     1      -0.579  -0.164   1.846  1.00  0.00    -0.384 OA
ATOM     12  H   UNL     1      -1.017  -0.843   2.392  1.00  0.00     0.211 HD
ENDBRANCH  10  11
BRANCH  10  13
ATOM     13  C   UNL     1      -1.410  -1.740   0.255  1.00  0.00    -0.015 A 
ATOM     14  C   UNL     1      -0.328  -2.633   0.397  1.00  0.00     0.007 A 
ATOM     15  C   UNL     1      -2.646  -2.298  -0.109  1.00  0.00     0.007 A 
ATOM     16  C   UNL     1      -0.465  -4.004   0.164  1.00  0.00     0.000 A 
ATOM     17  C   UNL     1      -2.788  -3.672  -0.340  1.00  0.00     0.000 A 
ATOM     18  C   UNL     1      -1.698  -4.524  -0.207  1.00  0.00     0.000 A 
ENDBRANCH  10  13
BRANCH  10  19
ATOM     19  C   UNL     1      -2.528   0.611   0.664  1.00  0.00     0.027 C 
ATOM     20  C   UNL     1      -3.262   0.878  -0.676  1.00  0.00     0.007 C 
ATOM     21  C   UNL     1      -2.327   1.925   1.466  1.00  0.00     0.007 C 
ATOM     22  C   UNL     1      -3.209   2.333  -1.123  1.00  0.00     0.000 C 
ATOM     23  C   UNL     1      -3.541   2.843   1.355  1.00  0.00     0.000 C 
ATOM     24  C   UNL     1      -3.815   3.271  -0.083  1.00  0.00     0.000 C 
ENDBRANCH  10  19
ENDBRANCH   1  10
TORSDOF 5
