REMARK SMILES COc1ccc([C@@H]2Sc3ccccc3N(CCN(C)C)C(=O)[C@@H]2OC(C)=O)cc1
REMARK SMILES IDX 9 1 10 2 11 3 12 4 13 5 14 6 8 7 7 8 6 9 3 10 4 11 29 12
REMARK SMILES IDX 5 13 28 14 2 15 1 16 23 17 24 19 25 20 26 21 27 22 15 23
REMARK SMILES IDX 16 24 17 25 18 26 19 27 20 28 21 29 22 30
REMARK H PARENT
REMARK Flexibility Score: 80.00
ROOT
ATOM      1  C   UNL     1       0.355  -1.468   0.722  1.00  0.00     0.032 A 
ATOM      2  C   UNL     1      -0.073  -2.424   1.660  1.00  0.00     0.017 A 
ATOM      3  C   UNL     1       0.468  -2.463   2.944  1.00  0.00     0.001 A 
ATOM      4  C   UNL     1       1.460  -1.558   3.300  1.00  0.00     0.002 A 
ATOM      5  C   UNL     1       1.908  -0.612   2.374  1.00  0.00     0.027 A 
ATOM      6  C   UNL     1       1.365  -0.546   1.078  1.00  0.00     0.057 A 
ENDROOT
BRANCH   1   7
ATOM      7  S   UNL     1      -0.325  -1.649  -0.922  1.00  0.00    -0.111 SA
BRANCH   7   8
ATOM      8  C   UNL     1      -1.062   0.013  -1.227  1.00  0.00     0.132 C 
BRANCH   8   9
ATOM      9  C   UNL     1      -2.585  -0.034  -1.162  1.00  0.00    -0.030 A 
ATOM     10  C   UNL     1      -5.410  -0.037  -1.073  1.00  0.00     0.118 A 
ATOM     11  C   UNL     1      -4.671  -0.397   0.052  1.00  0.00     0.047 A 
ATOM     12  C   UNL     1      -4.737   0.312  -2.243  1.00  0.00     0.047 A 
ATOM     13  C   UNL     1      -3.271  -0.396   0.007  1.00  0.00     0.009 A 
ATOM     14  C   UNL     1      -3.340   0.317  -2.291  1.00  0.00     0.009 A 
BRANCH  10  15
ATOM     15  O   UNL     1      -6.774   0.013  -1.157  1.00  0.00    -0.497 OA
ATOM     16  C   UNL     1      -7.500  -0.245   0.035  1.00  0.00     0.278 C 
ENDBRANCH  10  15
ENDBRANCH   8   9
BRANCH   8  17
ATOM     17  C   UNL     1      -0.466   1.199  -0.449  1.00  0.00     0.283 CG0
ATOM     18  G   UNL     1       1.052   1.189  -0.691  1.00  0.00     0.000 G0
BRANCH  17  19
ATOM     19  O   UNL     1      -0.862   1.203   0.931  1.00  0.00    -0.451 OA
BRANCH  19  20
ATOM     20  C   UNL     1      -0.622   2.360   1.601  1.00  0.00     0.303 C 
ATOM     21  C   UNL     1      -0.995   2.210   3.044  1.00  0.00     0.139 C 
ATOM     22  O   UNL     1      -0.138   3.370   1.112  1.00  0.00    -0.253 OA
ENDBRANCH  19  20
ENDBRANCH  17  19
ENDBRANCH   8  17
ENDBRANCH   7   8
ENDBRANCH   1   7
BRANCH   6  23
ATOM     23  N   UNL     1       1.857   0.458   0.185  1.00  0.00    -0.307 N 
BRANCH  23  24
ATOM     24  C   UNL     1       3.315   0.549  -0.008  1.00  0.00     0.141 C 
BRANCH  24  25
ATOM     25  C   UNL     1       3.809  -0.405  -1.118  1.00  0.00     0.106 C 
BRANCH  25  26
ATOM     26  N   UNL     1       5.278  -0.426  -1.282  1.00  0.00    -0.308 NA
ATOM     27  C   UNL     1       5.777   0.844  -1.819  1.00  0.00     0.105 C 
ATOM     28  C   UNL     1       5.658  -1.518  -2.183  1.00  0.00     0.105 C 
ENDBRANCH  25  26
ENDBRANCH  24  25
ENDBRANCH  23  24
BRANCH  23  29
ATOM     29  C   UNL     1       1.052   1.189  -0.691  1.00  0.00     0.269 CG0
ATOM     30  O   UNL     1       1.520   1.808  -1.654  1.00  0.00    -0.270 OA
ATOM     31  G   UNL     1      -0.466   1.199  -0.449  1.00  0.00     0.000 G0
ENDBRANCH  23  29
ENDBRANCH   6  23
TORSDOF 7
