REMARK SMILES CC1(C)S[C@@H]2[C@H](NC(=O)[C@H](N)c3ccc(O)cc3)C(=O)N2[C@H]1C(=O)O
REMARK SMILES IDX 7 1 8 2 9 3 6 5 1 6 2 7 3 8 4 9 22 10 5 11 21 12 19 13 20 14
REMARK SMILES IDX 23 15 24 16 25 17 10 19 11 20 12 23 13 24 18 25 14 26 17 27
REMARK SMILES IDX 15 28 16 29
REMARK H PARENT 7 4 25 18 11 21 11 22 16 30
REMARK Flexibility Score: inf
ROOT
ATOM      1  N   UNL     1       0.062  -1.419   0.788  1.00  0.00    -0.340 N 
ATOM      2  C   UNL     1       1.393  -1.752   0.620  1.00  0.00     0.242 C 
ATOM      3  O   UNL     1       1.756  -2.639  -0.147  1.00  0.00    -0.273 OA
ATOM      4  H   UNL     1      -0.086  -0.599   1.380  1.00  0.00     0.164 HD
ENDROOT
BRANCH   1   5
ATOM      5  C   UNL     1      -0.971  -1.848  -0.184  1.00  0.00     0.205 C 
ATOM      6  C   UNL     1      -3.744   2.304   0.564  1.00  0.00     0.026 C 
ATOM      7  C   UNL     1      -3.761   0.828   0.160  1.00  0.00     0.044 C 
ATOM      8  C   UNL     1      -5.192   0.277   0.233  1.00  0.00     0.026 C 
ATOM      9  S   UNL     1      -2.715  -0.127   1.364  1.00  0.00    -0.125 SA
ATOM     10  C   UNL     1      -3.054   0.590  -1.189  1.00  0.00     0.211 C 
ATOM     11  C   UNL     1      -2.433  -1.457   0.129  1.00  0.00     0.176 C 
ATOM     12  N   UNL     1      -2.485  -0.757  -1.165  1.00  0.00    -0.311 N 
ATOM     13  C   UNL     1      -1.148  -0.917  -1.416  1.00  0.00     0.250 C 
ATOM     14  O   UNL     1      -0.434  -0.361  -2.218  1.00  0.00    -0.272 OA
BRANCH  10  15
ATOM     15  C   UNL     1      -3.966   0.756  -2.396  1.00  0.00     0.327 C 
ATOM     16  O   UNL     1      -4.580  -0.119  -2.986  1.00  0.00    -0.250 OA
BRANCH  15  17
ATOM     17  O   UNL     1      -4.103   2.045  -2.771  1.00  0.00    -0.480 OA
ATOM     18  H   UNL     1      -4.680   2.002  -3.564  1.00  0.00     0.296 HD
ENDBRANCH  15  17
ENDBRANCH  10  15
ENDBRANCH   1   5
BRANCH   2  19
ATOM     19  C   UNL     1       2.348  -0.918   1.518  1.00  0.00     0.172 C 
BRANCH  19  20
ATOM     20  N   UNL     1       1.668   0.336   1.949  1.00  0.00    -0.316 NA
ATOM     21  H   UNL     1       1.659   0.966   1.143  1.00  0.00     0.119 HD
ATOM     22  H   UNL     1       2.285   0.795   2.620  1.00  0.00     0.119 HD
ENDBRANCH  19  20
BRANCH  19  23
ATOM     23  C   UNL     1       3.677  -0.580   0.869  1.00  0.00    -0.022 A 
ATOM     24  C   UNL     1       3.761  -0.172  -0.474  1.00  0.00     0.010 A 
ATOM     25  C   UNL     1       4.853  -0.607   1.638  1.00  0.00     0.010 A 
ATOM     26  C   UNL     1       4.991   0.175  -1.040  1.00  0.00     0.046 A 
ATOM     27  C   UNL     1       6.080  -0.256   1.073  1.00  0.00     0.046 A 
ATOM     28  C   UNL     1       6.141   0.129  -0.260  1.00  0.00     0.115 A 
BRANCH  28  29
ATOM     29  O   UNL     1       7.360   0.460  -0.771  1.00  0.00    -0.508 OA
ATOM     30  H   UNL     1       7.254   0.649  -1.718  1.00  0.00     0.293 HD
ENDBRANCH  28  29
ENDBRANCH  19  23
ENDBRANCH   2  19
TORSDOF 7
