REMARK SMILES Cn1c(=O)c2c(ncn2CC(=O)O)n(C)c1=O
REMARK SMILES IDX 10 1 9 2 1 3 2 4 3 5 16 6 4 7 5 8 14 9 17 10 6 11 15 12 7 13
REMARK SMILES IDX 8 14 11 15 12 16 13 17
REMARK H PARENT 13 18
REMARK Flexibility Score: inf
ROOT
ATOM      1  C   UNL     1       2.639  -1.116   0.647  1.00  0.00     0.246 C 
ENDROOT
BRANCH   1   2
ATOM      2  N   UNL     1       1.267  -0.804   1.009  1.00  0.00    -0.313 N 
ATOM      3  C   UNL     1      -1.150   0.677  -3.060  1.00  0.00     0.159 C 
ATOM      4  N   UNL     1      -1.007   0.332  -1.659  1.00  0.00    -0.261 N 
ATOM      5  C   UNL     1       0.250  -0.076  -1.206  1.00  0.00     0.282 C 
ATOM      6  C   UNL     1      -2.166   0.457  -0.864  1.00  0.00     0.332 C 
ATOM      7  O   UNL     1       1.251  -0.166  -1.910  1.00  0.00    -0.267 OA
ATOM      8  C   UNL     1       0.264  -0.384   0.181  1.00  0.00     0.153 A 
ATOM      9  N   UNL     1      -2.049   0.131   0.488  1.00  0.00    -0.279 N 
ATOM     10  O   UNL     1      -3.233   0.838  -1.354  1.00  0.00    -0.247 OA
ATOM     11  C   UNL     1      -0.834  -0.279   0.979  1.00  0.00     0.167 A 
ATOM     12  C   UNL     1      -3.194   0.235   1.375  1.00  0.00     0.157 C 
ATOM     13  N   UNL     1      -0.561  -0.623   2.268  1.00  0.00    -0.218 NA
ATOM     14  C   UNL     1       0.721  -0.933   2.261  1.00  0.00     0.203 A 
ENDBRANCH   1   2
BRANCH   1  15
ATOM     15  C   UNL     1       3.528   0.083   0.466  1.00  0.00     0.323 C 
ATOM     16  O   UNL     1       4.682   0.038   0.064  1.00  0.00    -0.250 OA
BRANCH  15  17
ATOM     17  O   UNL     1       2.999   1.265   0.833  1.00  0.00    -0.480 OA
ATOM     18  H   UNL     1       3.701   1.921   0.634  1.00  0.00     0.296 HD
ENDBRANCH  15  17
ENDBRANCH   1  15
TORSDOF 3
