REMARK SMILES N#C[C@@H]1C[C@@H]2C[C@@H]2N1C(=O)[C@@H](N)C12CC3CC(CC(O)(C3)C1)C2
REMARK SMILES IDX 9 1 10 2 8 3 3 4 4 5 5 6 7 7 6 8 2 9 1 10 11 11 12 12 13 15
REMARK SMILES IDX 23 16 22 17 14 18 17 19 19 20 15 21 16 22 18 23 21 24 20 25
REMARK H PARENT 12 13 12 14 20 26
REMARK Flexibility Score: inf
ROOT
ATOM      1  C   UNL     1      -1.447   0.908   0.008  1.00  0.00     0.241 C 
ATOM      2  O   UNL     1      -0.996   2.007   0.335  1.00  0.00    -0.273 OA
ENDROOT
BRANCH   1   3
ATOM      3  N   UNL     1      -2.718   0.525   0.394  1.00  0.00    -0.322 N 
ATOM      4  C   UNL     1      -3.530   1.372   1.287  1.00  0.00     0.189 C 
ATOM      5  C   UNL     1      -4.971   0.814   1.183  1.00  0.00     0.046 C 
ATOM      6  C   UNL     1      -4.862  -0.513   0.477  1.00  0.00     0.017 C 
ATOM      7  C   UNL     1      -3.453  -0.632  -0.030  1.00  0.00     0.090 C 
ATOM      8  C   UNL     1      -3.980  -1.634   0.957  1.00  0.00     0.031 C 
BRANCH   4   9
ATOM      9  C   UNL     1      -3.050   1.300   2.685  1.00  0.00     0.087 C 
ATOM     10  N   UNL     1      -2.704   1.221   3.791  1.00  0.00    -0.196 NA
ENDBRANCH   4   9
ENDBRANCH   1   3
BRANCH   1  11
ATOM     11  C   UNL     1      -0.659  -0.084  -0.897  1.00  0.00     0.147 C 
BRANCH  11  12
ATOM     12  N   UNL     1      -1.092   0.154  -2.293  1.00  0.00    -0.319 NA
ATOM     13  H   UNL     1      -0.557  -0.428  -2.932  1.00  0.00     0.119 HD
ATOM     14  H   UNL     1      -0.871   1.121  -2.540  1.00  0.00     0.119 HD
ENDBRANCH  11  12
BRANCH  11  15
ATOM     15  C   UNL     1       0.897  -0.050  -0.709  1.00  0.00    -0.002 C 
ATOM     16  C   UNL     1       1.570   1.251  -1.232  1.00  0.00     0.013 C 
ATOM     17  C   UNL     1       1.259  -0.221   0.796  1.00  0.00     0.044 C 
ATOM     18  C   UNL     1       1.547  -1.249  -1.473  1.00  0.00     0.013 C 
ATOM     19  C   UNL     1       3.095   1.211  -1.018  1.00  0.00    -0.007 C 
ATOM     20  C   UNL     1       2.784  -0.257   1.002  1.00  0.00     0.066 C 
ATOM     21  C   UNL     1       3.071  -1.292  -1.267  1.00  0.00    -0.007 C 
ATOM     22  C   UNL     1       3.686   0.017  -1.783  1.00  0.00     0.007 C 
ATOM     23  C   UNL     1       3.396   1.052   0.479  1.00  0.00     0.039 C 
ATOM     24  C   UNL     1       3.376  -1.444   0.228  1.00  0.00     0.039 C 
BRANCH  20  25
ATOM     25  O   UNL     1       3.090  -0.388   2.382  1.00  0.00    -0.390 OA
ATOM     26  H   UNL     1       2.621  -1.167   2.727  1.00  0.00     0.211 HD
ENDBRANCH  20  25
ENDBRANCH  11  15
ENDBRANCH   1  11
TORSDOF 6
