REMARK SMILES COc1cc2nc(N3CCN(C(=O)C4CCCO4)CC3)nc(N)c2cc1OC
REMARK SMILES IDX 8 1 9 2 10 3 11 4 12 5 13 6 19 7 20 8 7 9 3 10 4 11 26 12
REMARK SMILES IDX 5 13 25 14 6 15 24 16 22 17 21 18 2 19 1 20 27 21 28 22
REMARK SMILES IDX 23 23 14 26 15 27 18 28 16 29 17 30
REMARK H PARENT 23 24 23 25
REMARK Flexibility Score: inf
ROOT
ATOM      1  N   UNL     1      -0.489   1.109  -0.647  1.00  0.00    -0.337 N 
ATOM      2  C   UNL     1      -1.136  -0.201  -0.781  1.00  0.00     0.141 C 
ATOM      3  C   UNL     1      -2.560  -0.059  -1.348  1.00  0.00     0.141 C 
ATOM      4  N   UNL     1      -3.366   0.944  -0.640  1.00  0.00    -0.337 N 
ATOM      5  C   UNL     1      -4.763   0.961  -0.657  1.00  0.00     0.251 C 
ATOM      6  O   UNL     1      -5.395   1.982  -0.374  1.00  0.00    -0.272 OA
ATOM      7  C   UNL     1      -2.690   2.235  -0.457  1.00  0.00     0.141 C 
ATOM      8  C   UNL     1      -1.268   2.102   0.112  1.00  0.00     0.141 C 
ENDROOT
BRANCH   1   9
ATOM      9  C   UNL     1       0.853   1.037  -0.256  1.00  0.00     0.228 A 
ATOM     10  C   UNL     1       4.916  -1.417  -0.218  1.00  0.00     0.162 A 
ATOM     11  C   UNL     1       3.561  -1.275  -0.539  1.00  0.00     0.079 A 
ATOM     12  C   UNL     1       5.580  -0.376   0.450  1.00  0.00     0.161 A 
ATOM     13  C   UNL     1       2.843  -0.129  -0.218  1.00  0.00     0.082 A 
ATOM     14  C   UNL     1       4.870   0.780   0.778  1.00  0.00     0.064 A 
ATOM     15  N   UNL     1       1.552  -0.068  -0.557  1.00  0.00    -0.213 NA
ATOM     16  C   UNL     1       3.497   0.908   0.444  1.00  0.00     0.047 A 
ATOM     17  C   UNL     1       2.692   2.016   0.723  1.00  0.00     0.137 A 
ATOM     18  N   UNL     1       1.402   2.079   0.378  1.00  0.00    -0.195 NA
BRANCH  10  19
ATOM     19  O   UNL     1       5.671  -2.525  -0.510  1.00  0.00    -0.493 OA
ATOM     20  C   UNL     1       5.045  -3.584  -1.222  1.00  0.00     0.278 C 
ENDBRANCH  10  19
BRANCH  12  21
ATOM     21  O   UNL     1       6.905  -0.585   0.734  1.00  0.00    -0.493 OA
ATOM     22  C   UNL     1       7.619   0.453   1.389  1.00  0.00     0.278 C 
ENDBRANCH  12  21
BRANCH  17  23
ATOM     23  N   UNL     1       3.201   3.147   1.386  1.00  0.00    -0.383 N 
ATOM     24  H   UNL     1       3.951   3.556   0.837  1.00  0.00     0.158 HD
ATOM     25  H   UNL     1       3.565   2.881   2.295  1.00  0.00     0.158 HD
ENDBRANCH  17  23
ENDBRANCH   1   9
BRANCH   5  26
ATOM     26  C   UNL     1      -5.496  -0.363  -0.980  1.00  0.00     0.207 C 
ATOM     27  C   UNL     1      -5.380  -1.342   0.188  1.00  0.00     0.044 C 
ATOM     28  O   UNL     1      -6.902  -0.170  -1.219  1.00  0.00    -0.368 OA
ATOM     29  C   UNL     1      -6.779  -1.886   0.345  1.00  0.00     0.032 C 
ATOM     30  C   UNL     1      -7.621  -0.723  -0.115  1.00  0.00     0.161 C 
ENDBRANCH   5  26
TORSDOF 5
