REMARK SMILES Nc1ccn([C@@H]2O[C@H](CO)[C@@H](O)C2(F)F)c(=O)n1
REMARK SMILES IDX 6 1 7 2 8 3 11 4 13 5 14 6 15 7 5 8 1 9 2 10 3 13 18 14 4 15
REMARK SMILES IDX 16 16 17 17 9 18 10 19 12 21
REMARK H PARENT 1 11 1 12 10 20 12 22
REMARK Flexibility Score: inf
ROOT
ATOM      1  C   UNL     1      -0.386   0.717  -0.926  1.00  0.00     0.297 C 
ATOM      2  O   UNL     1      -1.253   1.037   0.199  1.00  0.00    -0.343 OA
ATOM      3  C   UNL     1      -2.407   0.171   0.091  1.00  0.00     0.181 C 
ATOM      4  C   UNL     1      -1.906  -1.096  -0.574  1.00  0.00     0.220 C 
ATOM      5  C   UNL     1      -0.990  -0.511  -1.634  1.00  0.00     0.320 C 
ATOM      6  F   UNL     1      -1.713  -0.141  -2.719  1.00  0.00    -0.198 F 
ATOM      7  F   UNL     1      -0.096  -1.436  -2.038  1.00  0.00    -0.198 F 
ENDROOT
BRANCH   1   8
ATOM      8  N   UNL     1       0.989   0.540  -0.467  1.00  0.00    -0.266 N 
ATOM      9  N   UNL     1       4.900  -0.049   0.435  1.00  0.00    -0.383 N 
ATOM     10  C   UNL     1       3.579   0.139   0.138  1.00  0.00     0.130 C 
ATOM     11  H   UNL     1       5.503   0.251  -0.326  1.00  0.00     0.158 HD
ATOM     12  H   UNL     1       5.218   0.278   1.339  1.00  0.00     0.158 HD
ATOM     13  C   UNL     1       2.568   0.042   1.210  1.00  0.00     0.065 C 
ATOM     14  N   UNL     1       3.284   0.401  -1.096  1.00  0.00    -0.176 NA
ATOM     15  C   UNL     1       1.305   0.247   0.840  1.00  0.00     0.097 C 
ATOM     16  C   UNL     1       1.975   0.602  -1.459  1.00  0.00     0.351 C 
ATOM     17  O   UNL     1       1.669   0.842  -2.625  1.00  0.00    -0.246 OA
ENDBRANCH   1   8
BRANCH   3  18
ATOM     18  C   UNL     1      -2.984  -0.067   1.482  1.00  0.00     0.191 C 
BRANCH  18  19
ATOM     19  O   UNL     1      -3.377   1.177   2.061  1.00  0.00    -0.394 OA
ATOM     20  H   UNL     1      -2.647   1.803   1.893  1.00  0.00     0.210 HD
ENDBRANCH  18  19
ENDBRANCH   3  18
BRANCH   4  21
ATOM     21  O   UNL     1      -2.970  -1.903  -1.069  1.00  0.00    -0.384 OA
ATOM     22  H   UNL     1      -2.641  -2.378  -1.857  1.00  0.00     0.211 HD
ENDBRANCH   4  21
TORSDOF 4
