REMARK SMILES O=P(O)(O)C(O)(Cc1cnc2ccccn12)P(=O)(O)O
REMARK SMILES IDX 5 1 2 2 1 3 3 4 4 6 6 8 7 10 8 11 9 12 16 13 10 14 11 15
REMARK SMILES IDX 15 16 12 17 14 18 13 19 17 20 18 21 19 22 20 24
REMARK H PARENT 3 5 4 7 6 9 19 23 20 25
REMARK Flexibility Score: inf
ROOT
ATOM      1  C   UNL     1      -1.069  -0.395  -1.024  1.00  0.00     0.272 C 
ENDROOT
BRANCH   1   2
ATOM      2  P   UNL     1      -1.976   1.156  -0.788  1.00  0.00     0.369 P 
ATOM      3  O   UNL     1      -1.627   2.361  -1.596  1.00  0.00    -0.256 OA
BRANCH   2   4
ATOM      4  O   UNL     1      -3.549   0.859  -0.787  1.00  0.00    -0.322 OA
ATOM      5  H   UNL     1      -4.099   1.664  -0.797  1.00  0.00     0.221 HD
ENDBRANCH   2   4
BRANCH   2   6
ATOM      6  O   UNL     1      -1.794   1.453   0.789  1.00  0.00    -0.322 OA
ATOM      7  H   UNL     1      -1.976   2.386   1.020  1.00  0.00     0.221 HD
ENDBRANCH   2   6
ENDBRANCH   1   2
BRANCH   1   8
ATOM      8  O   UNL     1      -1.214  -1.167   0.211  1.00  0.00    -0.367 OA
ATOM      9  H   UNL     1      -1.435  -0.511   0.907  1.00  0.00     0.213 HD
ENDBRANCH   1   8
BRANCH   1  10
ATOM     10  C   UNL     1       0.437  -0.140  -1.259  1.00  0.00     0.118 C 
BRANCH  10  11
ATOM     11  C   UNL     1       1.125   0.645  -0.187  1.00  0.00     0.047 A 
ATOM     12  C   UNL     1       1.383   2.001  -0.103  1.00  0.00     0.135 A 
ATOM     13  N   UNL     1       1.673   0.107   0.964  1.00  0.00    -0.304 N 
ATOM     14  N   UNL     1       2.027   2.320   1.060  1.00  0.00    -0.237 NA
ATOM     15  C   UNL     1       2.201   1.177   1.687  1.00  0.00     0.136 A 
ATOM     16  C   UNL     1       1.739  -1.214   1.411  1.00  0.00     0.093 C 
ATOM     17  C   UNL     1       2.823   0.881   2.933  1.00  0.00     0.047 C 
ATOM     18  C   UNL     1       2.330  -1.486   2.587  1.00  0.00     0.018 C 
ATOM     19  C   UNL     1       2.887  -0.393   3.366  1.00  0.00     0.005 C 
ENDBRANCH  10  11
ENDBRANCH   1  10
BRANCH   1  20
ATOM     20  P   UNL     1      -1.635  -1.476  -2.379  1.00  0.00     0.369 P 
ATOM     21  O   UNL     1      -0.783  -2.652  -2.742  1.00  0.00    -0.256 OA
BRANCH  20  22
ATOM     22  O   UNL     1      -1.861  -0.540  -3.661  1.00  0.00    -0.322 OA
ATOM     23  H   UNL     1      -1.981  -1.047  -4.486  1.00  0.00     0.221 HD
ENDBRANCH  20  22
BRANCH  20  24
ATOM     24  O   UNL     1      -3.139  -1.937  -2.073  1.00  0.00    -0.322 OA
ATOM     25  H   UNL     1      -3.422  -2.705  -2.602  1.00  0.00     0.221 HD
ENDBRANCH  20  24
ENDBRANCH   1  20
TORSDOF 9
