REMARK SMILES CN(C)c1ccc2nc3ccc(=[N+](C)C)cc-3sc2c1
REMARK SMILES IDX 4 1 5 2 6 3 7 4 8 5 9 6 10 7 11 8 12 9 13 10 14 11 15 12
REMARK SMILES IDX 16 13 17 14 18 15 19 16 20 17 2 18 1 19 3 20
REMARK H PARENT
REMARK Flexibility Score: inf
ROOT
ATOM      1  C   UNL     1      -3.806   0.089   0.354  1.00  0.00     0.038 A 
ATOM      2  C   UNL     1      -3.567  -1.019   1.179  1.00  0.00     0.028 A 
ATOM      3  C   UNL     1      -2.275  -1.511   1.406  1.00  0.00     0.032 A 
ATOM      4  C   UNL     1      -1.158  -0.910   0.828  1.00  0.00     0.081 A 
ATOM      5  N   UNL     1       0.088  -1.479   1.124  1.00  0.00    -0.246 NA
ATOM      6  C   UNL     1       1.183  -0.980   0.658  1.00  0.00     0.081 C 
ATOM      7  C   UNL     1       2.432  -1.675   1.057  1.00  0.00     0.036 C 
ATOM      8  C   UNL     1       3.649  -1.275   0.680  1.00  0.00     0.081 C 
ATOM      9  C   UNL     1       3.844  -0.081  -0.191  1.00  0.00     0.201 C 
ATOM     10  N   UNL     1       5.026   0.331  -0.558  1.00  0.00    -0.235 N 
ATOM     11  C   UNL     1       5.225   1.459  -1.525  1.00  0.00     0.433 C 
ATOM     12  C   UNL     1       6.292  -0.287  -0.045  1.00  0.00     0.433 C 
ATOM     13  C   UNL     1       2.585   0.604  -0.611  1.00  0.00     0.100 C 
ATOM     14  C   UNL     1       1.364   0.201  -0.227  1.00  0.00     0.060 C 
ATOM     15  S   UNL     1      -0.019   1.073  -0.775  1.00  0.00    -0.132 SA
ATOM     16  C   UNL     1      -1.356   0.204   0.013  1.00  0.00     0.055 A 
ATOM     17  C   UNL     1      -2.663   0.687  -0.209  1.00  0.00     0.047 A 
ENDROOT
BRANCH   1  18
ATOM     18  N   UNL     1      -5.089   0.598   0.139  1.00  0.00    -0.378 N 
ATOM     19  C   UNL     1      -5.332   1.449  -1.027  1.00  0.00     0.143 C 
ATOM     20  C   UNL     1      -6.252  -0.144   0.627  1.00  0.00     0.143 C 
ENDBRANCH   1  18
TORSDOF 1
