REMARK SMILES C=CC(=O)N1CCC[C@@H](n2nc(-c3ccc(Oc4ccccc4)cc3)c3c(N)ncnc32)C1
REMARK SMILES IDX 10 1 11 2 12 3 26 4 27 5 29 6 30 7 31 8 32 9 9 10 5 11 6 12
REMARK SMILES IDX 33 13 7 14 8 15 3 16 4 17 2 18 1 19 13 20 14 21 25 22 15 23
REMARK SMILES IDX 24 24 16 25 17 26 18 27 19 28 23 29 20 30 22 31 21 32 28 33
REMARK H PARENT 28 34 28 35
REMARK Flexibility Score: inf
ROOT
ATOM      1  N   UNL     1      -1.937   0.582   1.004  1.00  0.00    -0.242 N 
ATOM      2  N   UNL     1      -0.733   0.164   0.561  1.00  0.00    -0.170 NA
ATOM      3  C   UNL     1       0.027   1.276   0.571  1.00  0.00     0.106 A 
ATOM      4  C   UNL     1      -0.737   2.423   0.943  1.00  0.00     0.089 A 
ATOM      5  C   UNL     1      -0.566   3.807   1.075  1.00  0.00     0.138 A 
ATOM      6  N   UNL     1      -1.615   4.553   1.484  1.00  0.00    -0.219 NA
ATOM      7  C   UNL     1      -2.785   3.938   1.740  1.00  0.00     0.226 A 
ATOM      8  N   UNL     1      -3.073   2.632   1.627  1.00  0.00    -0.217 NA
ATOM      9  C   UNL     1      -2.000   1.929   1.225  1.00  0.00     0.164 A 
ENDROOT
BRANCH   1  10
ATOM     10  C   UNL     1      -3.034  -0.368   1.147  1.00  0.00     0.129 C 
ATOM     11  N   UNL     1      -4.439  -1.930  -0.163  1.00  0.00    -0.337 N 
ATOM     12  C   UNL     1      -3.821  -3.139   0.377  1.00  0.00     0.120 C 
ATOM     13  C   UNL     1      -3.576  -0.747  -0.239  1.00  0.00     0.147 C 
ATOM     14  C   UNL     1      -2.527  -2.864   1.145  1.00  0.00     0.024 C 
ATOM     15  C   UNL     1      -2.653  -1.601   1.996  1.00  0.00     0.031 C 
BRANCH  11  16
ATOM     16  C   UNL     1      -5.664  -2.075  -0.790  1.00  0.00     0.246 C 
ATOM     17  O   UNL     1      -6.219  -3.159  -0.953  1.00  0.00    -0.270 OA
BRANCH  16  18
ATOM     18  C   UNL     1      -6.338  -0.858  -1.299  1.00  0.00     0.063 C 
ATOM     19  C   UNL     1      -6.726   0.123  -0.474  1.00  0.00     0.014 C 
ENDBRANCH  16  18
ENDBRANCH  11  16
ENDBRANCH   1  10
BRANCH   3  20
ATOM     20  C   UNL     1       1.440   1.197   0.208  1.00  0.00     0.003 A 
ATOM     21  C   UNL     1       1.831   0.491  -0.939  1.00  0.00     0.014 A 
ATOM     22  C   UNL     1       2.421   1.806   1.003  1.00  0.00     0.014 A 
ATOM     23  C   UNL     1       3.179   0.407  -1.295  1.00  0.00     0.048 A 
ATOM     24  C   UNL     1       3.769   1.724   0.647  1.00  0.00     0.048 A 
ATOM     25  C   UNL     1       4.147   1.011  -0.490  1.00  0.00     0.127 A 
BRANCH  25  26
ATOM     26  O   UNL     1       5.487   0.993  -0.803  1.00  0.00    -0.457 OA
BRANCH  26  27
ATOM     27  C   UNL     1       6.046  -0.227  -1.112  1.00  0.00     0.127 A 
ATOM     28  C   UNL     1       5.828  -1.376  -0.348  1.00  0.00     0.047 A 
ATOM     29  C   UNL     1       6.921  -0.262  -2.198  1.00  0.00     0.047 A 
ATOM     30  C   UNL     1       6.457  -2.571  -0.698  1.00  0.00     0.004 A 
ATOM     31  C   UNL     1       7.550  -1.458  -2.546  1.00  0.00     0.004 A 
ATOM     32  C   UNL     1       7.315  -2.613  -1.799  1.00  0.00     0.000 A 
ENDBRANCH  26  27
ENDBRANCH  25  26
ENDBRANCH   3  20
BRANCH   5  33
ATOM     33  N   UNL     1       0.604   4.495   0.790  1.00  0.00    -0.383 N 
ATOM     34  H   UNL     1       1.177   4.088   0.060  1.00  0.00     0.158 HD
ATOM     35  H   UNL     1       0.420   5.488   0.700  1.00  0.00     0.158 HD
ENDBRANCH   5  33
TORSDOF 7
