REMARK SMILES Cc1cc(-c2nnc(N)nc2-c2ccc(F)cc2)cc(Cl)n1
REMARK SMILES IDX 5 1 6 2 7 3 8 4 10 5 11 6 4 7 1 8 2 9 22 10 3 11 20 12 21 13
REMARK SMILES IDX 19 14 12 15 13 16 18 17 14 18 17 19 15 20 16 21 9 22
REMARK H PARENT 9 23 9 24
REMARK Flexibility Score: inf
ROOT
ATOM      1  C   UNL     1       0.056   1.642  -0.063  1.00  0.00     0.120 A 
ATOM      2  N   UNL     1       0.191   2.982  -0.157  1.00  0.00    -0.144 NA
ATOM      3  N   UNL     1      -0.746   3.705  -0.838  1.00  0.00    -0.111 NA
ATOM      4  C   UNL     1      -1.788   3.078  -1.410  1.00  0.00     0.240 A 
ATOM      5  N   UNL     1      -1.993   1.762  -1.324  1.00  0.00    -0.210 NA
ATOM      6  C   UNL     1      -1.065   1.043  -0.637  1.00  0.00     0.102 A 
ENDROOT
BRANCH   1   7
ATOM      7  C   UNL     1       1.151   0.961   0.643  1.00  0.00     0.009 A 
ATOM      8  C   UNL     1       3.533  -1.968   0.245  1.00  0.00     0.067 C 
ATOM      9  C   UNL     1       2.834  -0.770   0.814  1.00  0.00     0.040 A 
ATOM     10  N   UNL     1       3.242  -0.329   2.022  1.00  0.00    -0.241 NA
ATOM     11  C   UNL     1       1.808  -0.154   0.099  1.00  0.00     0.034 A 
ATOM     12  C   UNL     1       2.621   0.757   2.519  1.00  0.00     0.130 A 
ATOM     13  Cl  UNL     1       3.195   1.270   4.051  1.00  0.00    -0.062 Cl
ATOM     14  C   UNL     1       1.593   1.429   1.886  1.00  0.00     0.051 A 
ENDBRANCH   1   7
BRANCH   6  15
ATOM     15  C   UNL     1      -1.385  -0.395  -0.550  1.00  0.00     0.003 A 
ATOM     16  C   UNL     1      -1.643  -1.135  -1.721  1.00  0.00     0.013 A 
ATOM     17  C   UNL     1      -1.466  -1.064   0.686  1.00  0.00     0.013 A 
ATOM     18  C   UNL     1      -1.942  -2.499  -1.661  1.00  0.00     0.040 A 
ATOM     19  C   UNL     1      -1.762  -2.429   0.747  1.00  0.00     0.040 A 
ATOM     20  C   UNL     1      -1.995  -3.133  -0.427  1.00  0.00     0.123 A 
ATOM     21  F   UNL     1      -2.279  -4.440  -0.368  1.00  0.00    -0.207 F 
ENDBRANCH   6  15
BRANCH   4  22
ATOM     22  N   UNL     1      -2.733   3.820  -2.091  1.00  0.00    -0.366 N 
ATOM     23  H   UNL     1      -2.744   4.778  -1.766  1.00  0.00     0.159 HD
ATOM     24  H   UNL     1      -3.616   3.327  -2.111  1.00  0.00     0.159 HD
ENDBRANCH   4  22
TORSDOF 3
