REMARK SMILES CCN1C(=O)NC(c2ccccc2)C1=O
REMARK SMILES IDX 3 1 4 2 5 3 6 4 7 5 14 6 15 7 2 9 1 10 8 11 9 12 13 13 10 14
REMARK SMILES IDX 12 15 11 16
REMARK H PARENT 6 8
REMARK Flexibility Score: inf
ROOT
ATOM      1  N   UNL     1       1.974   0.635  -0.420  1.00  0.00    -0.263 N 
ATOM      2  C   UNL     1       1.894  -0.295  -1.413  1.00  0.00     0.325 C 
ATOM      3  O   UNL     1       2.761  -1.070  -1.777  1.00  0.00    -0.248 OA
ATOM      4  N   UNL     1       0.634  -0.247  -1.959  1.00  0.00    -0.322 N 
ATOM      5  C   UNL     1      -0.212   0.706  -1.290  1.00  0.00     0.204 C 
ATOM      6  C   UNL     1       0.766   1.260  -0.248  1.00  0.00     0.257 C 
ATOM      7  O   UNL     1       0.510   2.115   0.589  1.00  0.00    -0.272 OA
ATOM      8  H   UNL     1       0.343  -0.884  -2.688  1.00  0.00     0.166 HD
ENDROOT
BRANCH   1   9
ATOM      9  C   UNL     1       3.134   0.841   0.420  1.00  0.00     0.127 C 
ATOM     10  C   UNL     1       3.111  -0.072   1.636  1.00  0.00     0.028 C 
ENDBRANCH   1   9
BRANCH   5  11
ATOM     11  C   UNL     1      -1.451   0.084  -0.697  1.00  0.00    -0.016 A 
ATOM     12  C   UNL     1      -2.671   0.775  -0.762  1.00  0.00     0.006 A 
ATOM     13  C   UNL     1      -1.421  -1.162  -0.047  1.00  0.00     0.006 A 
ATOM     14  C   UNL     1      -3.831   0.229  -0.208  1.00  0.00     0.000 A 
ATOM     15  C   UNL     1      -2.582  -1.706   0.505  1.00  0.00     0.000 A 
ATOM     16  C   UNL     1      -3.786  -1.012   0.423  1.00  0.00     0.000 A 
ENDBRANCH   5  11
TORSDOF 2
