REMARK SMILES CC(C)NCC(O)c1ccc(O)c(O)c1
REMARK SMILES IDX 5 1 4 2 2 4 1 5 3 6 6 7 7 8 8 10 9 11 15 12 10 13 13 14
REMARK SMILES IDX 11 15 14 16 12 18
REMARK H PARENT 4 3 7 9 14 17 12 19
REMARK Flexibility Score: inf
ROOT
ATOM      1  C   UNL     1       0.747  -0.915  -0.306  1.00  0.00     0.117 C 
ENDROOT
BRANCH   1   2
ATOM      2  N   UNL     1       2.185  -1.170  -0.108  1.00  0.00    -0.312 NA
ATOM      3  H   UNL     1       2.533  -1.728  -0.886  1.00  0.00     0.123 HD
BRANCH   2   4
ATOM      4  C   UNL     1       3.025   0.016   0.071  1.00  0.00     0.047 C 
ATOM      5  C   UNL     1       3.023   0.940  -1.148  1.00  0.00     0.024 C 
ATOM      6  C   UNL     1       4.453  -0.461   0.354  1.00  0.00     0.024 C 
ENDBRANCH   2   4
ENDBRANCH   1   2
BRANCH   1   7
ATOM      7  C   UNL     1       0.006  -0.165   0.832  1.00  0.00     0.158 C 
BRANCH   7   8
ATOM      8  O   UNL     1       0.028  -0.929   2.041  1.00  0.00    -0.387 OA
ATOM      9  H   UNL     1      -0.599  -0.510   2.653  1.00  0.00     0.211 HD
ENDBRANCH   7   8
BRANCH   7  10
ATOM     10  C   UNL     1      -1.437   0.121   0.458  1.00  0.00    -0.014 A 
ATOM     11  C   UNL     1      -1.828   1.417   0.086  1.00  0.00     0.010 A 
ATOM     12  C   UNL     1      -2.398  -0.905   0.458  1.00  0.00     0.056 A 
ATOM     13  C   UNL     1      -3.152   1.688  -0.272  1.00  0.00     0.050 A 
ATOM     14  C   UNL     1      -3.718  -0.631   0.102  1.00  0.00     0.157 A 
ATOM     15  C   UNL     1      -4.093   0.661  -0.262  1.00  0.00     0.157 A 
BRANCH  14  16
ATOM     16  O   UNL     1      -4.654  -1.627   0.105  1.00  0.00    -0.504 OA
ATOM     17  H   UNL     1      -4.235  -2.454   0.385  1.00  0.00     0.293 HD
ENDBRANCH  14  16
BRANCH  15  18
ATOM     18  O   UNL     1      -5.391   0.911  -0.609  1.00  0.00    -0.504 OA
ATOM     19  H   UNL     1      -5.486   1.849  -0.832  1.00  0.00     0.293 HD
ENDBRANCH  15  18
ENDBRANCH   7  10
ENDBRANCH   1   7
TORSDOF 7
