REMARK SMILES CCOC(=O)[C@H](CCc1ccccc1)N[C@@H](C)C(=O)N1[C@H](C(=O)O)C[C@H]2CCCC[C@@H]21
REMARK SMILES IDX 16 1 17 2 15 3 6 5 4 6 5 7 3 8 2 9 1 10 7 11 8 12 9 13 10 14
REMARK SMILES IDX 14 15 11 16 13 17 12 18 18 19 19 20 20 21 21 22 31 23 25 24
REMARK SMILES IDX 26 25 30 26 27 27 29 28 28 29 22 30 23 31 24 32
REMARK H PARENT 15 4 24 33
REMARK Flexibility Score: inf
ROOT
ATOM      1  C   UNL     1       0.549   0.326   0.714  1.00  0.00     0.141 C 
ATOM      2  C   UNL     1       0.584  -0.040   2.197  1.00  0.00     0.035 C 
ENDROOT
BRANCH   1   3
ATOM      3  N   UNL     1      -0.818   0.660   0.233  1.00  0.00    -0.293 NA
ATOM      4  H   UNL     1      -0.751   0.877  -0.771  1.00  0.00     0.124 HD
BRANCH   3   5
ATOM      5  C   UNL     1      -1.819  -0.436   0.362  1.00  0.00     0.165 C 
BRANCH   5   6
ATOM      6  C   UNL     1      -2.169  -1.000  -1.029  1.00  0.00     0.323 C 
ATOM      7  O   UNL     1      -1.922  -0.428  -2.087  1.00  0.00    -0.250 OA
BRANCH   6   8
ATOM      8  O   UNL     1      -2.799  -2.203  -0.905  1.00  0.00    -0.465 OA
BRANCH   8   9
ATOM      9  C   UNL     1      -3.110  -2.869  -2.138  1.00  0.00     0.229 C 
ATOM     10  C   UNL     1      -1.911  -3.660  -2.627  1.00  0.00     0.049 C 
ENDBRANCH   8   9
ENDBRANCH   6   8
ENDBRANCH   5   6
BRANCH   5  11
ATOM     11  C   UNL     1      -3.081   0.080   1.070  1.00  0.00     0.036 C 
BRANCH  11  12
ATOM     12  C   UNL     1      -3.795   1.229   0.343  1.00  0.00     0.038 C 
BRANCH  12  13
ATOM     13  C   UNL     1      -5.028   1.668   1.096  1.00  0.00    -0.048 A 
ATOM     14  C   UNL     1      -4.964   2.729   2.009  1.00  0.00     0.004 A 
ATOM     15  C   UNL     1      -6.246   0.996   0.918  1.00  0.00     0.004 A 
ATOM     16  C   UNL     1      -6.101   3.121   2.717  1.00  0.00     0.000 A 
ATOM     17  C   UNL     1      -7.381   1.385   1.631  1.00  0.00     0.000 A 
ATOM     18  C   UNL     1      -7.309   2.449   2.530  1.00  0.00     0.000 A 
ENDBRANCH  12  13
ENDBRANCH  11  12
ENDBRANCH   5  11
ENDBRANCH   3   5
ENDBRANCH   1   3
BRANCH   1  19
ATOM     19  C   UNL     1       1.220  -0.773  -0.142  1.00  0.00     0.240 C 
ATOM     20  O   UNL     1       0.597  -1.791  -0.467  1.00  0.00    -0.273 OA
BRANCH  19  21
ATOM     21  N   UNL     1       2.531  -0.607  -0.545  1.00  0.00    -0.324 N 
ATOM     22  C   UNL     1       3.042  -1.520  -1.590  1.00  0.00     0.195 C 
ATOM     23  C   UNL     1       3.424   0.539  -0.388  1.00  0.00     0.089 C 
ATOM     24  C   UNL     1       4.185  -0.737  -2.256  1.00  0.00     0.043 C 
ATOM     25  C   UNL     1       4.712   0.078  -1.084  1.00  0.00     0.014 C 
ATOM     26  C   UNL     1       3.789   0.995   1.026  1.00  0.00     0.025 C 
ATOM     27  C   UNL     1       5.621   1.258  -1.395  1.00  0.00     0.006 C 
ATOM     28  C   UNL     1       5.172   1.678   1.086  1.00  0.00     0.002 C 
ATOM     29  C   UNL     1       5.604   2.287  -0.255  1.00  0.00     0.000 C 
BRANCH  22  30
ATOM     30  C   UNL     1       3.550  -2.869  -1.061  1.00  0.00     0.326 C 
ATOM     31  O   UNL     1       3.964  -3.789  -1.753  1.00  0.00    -0.250 OA
BRANCH  30  32
ATOM     32  O   UNL     1       3.585  -2.977   0.283  1.00  0.00    -0.480 OA
ATOM     33  H   UNL     1       3.892  -3.895   0.435  1.00  0.00     0.296 HD
ENDBRANCH  30  32
ENDBRANCH  22  30
ENDBRANCH  19  21
ENDBRANCH   1  19
TORSDOF 12
