REMARK SMILES CC(CN1c2ccccc2Sc2ccc(S(=O)(=O)N(C)C)cc21)N(C)C
REMARK SMILES IDX 4 1 5 2 6 3 7 4 8 5 9 6 10 7 11 8 12 9 13 10 14 11 15 12
REMARK SMILES IDX 22 13 23 14 3 15 2 16 1 17 24 18 25 19 26 20 16 21 17 22
REMARK SMILES IDX 18 23 19 24 20 25 21 26
REMARK H PARENT
REMARK Flexibility Score: inf
ROOT
ATOM      1  N   UNL     1      -0.875   1.371  -0.765  1.00  0.00    -0.338 N 
ATOM      2  C   UNL     1      -1.601   2.588  -0.570  1.00  0.00     0.055 A 
ATOM      3  C   UNL     1      -2.991   2.609  -0.305  1.00  0.00     0.027 A 
ATOM      4  C   UNL     1      -3.711   3.794  -0.104  1.00  0.00     0.002 A 
ATOM      5  C   UNL     1      -3.064   5.014  -0.158  1.00  0.00     0.001 A 
ATOM      6  C   UNL     1      -1.699   5.039  -0.413  1.00  0.00     0.017 A 
ATOM      7  C   UNL     1      -0.970   3.847  -0.614  1.00  0.00     0.036 A 
ATOM      8  S   UNL     1       0.756   4.078  -0.948  1.00  0.00    -0.086 SA
ATOM      9  C   UNL     1       1.368   2.412  -0.967  1.00  0.00     0.036 A 
ATOM     10  C   UNL     1       2.772   2.303  -1.086  1.00  0.00     0.019 A 
ATOM     11  C   UNL     1       3.398   1.065  -1.126  1.00  0.00     0.023 A 
ATOM     12  C   UNL     1       2.607  -0.069  -1.045  1.00  0.00     0.084 A 
ATOM     13  C   UNL     1       1.212   0.031  -0.940  1.00  0.00     0.049 A 
ATOM     14  C   UNL     1       0.542   1.270  -0.894  1.00  0.00     0.057 A 
ENDROOT
BRANCH   1  15
ATOM     15  C   UNL     1      -1.681   0.124  -0.935  1.00  0.00     0.141 C 
BRANCH  15  16
ATOM     16  C   UNL     1      -2.074  -0.551   0.427  1.00  0.00     0.072 C 
ATOM     17  C   UNL     1      -3.436  -1.254   0.280  1.00  0.00     0.026 C 
BRANCH  16  18
ATOM     18  N   UNL     1      -1.013  -1.437   0.972  1.00  0.00    -0.305 NA
ATOM     19  C   UNL     1      -1.060  -1.519   2.431  1.00  0.00     0.105 C 
ATOM     20  C   UNL     1      -0.970  -2.777   0.388  1.00  0.00     0.105 C 
ENDBRANCH  16  18
ENDBRANCH  15  16
ENDBRANCH   1  15
BRANCH  12  21
ATOM     21  S   UNL     1       3.348  -1.680  -1.072  1.00  0.00     0.242 S 
ATOM     22  O   UNL     1       2.694  -2.435  -2.120  1.00  0.00    -0.207 OA
ATOM     23  O   UNL     1       4.788  -1.524  -1.050  1.00  0.00    -0.207 OA
BRANCH  21  24
ATOM     24  N   UNL     1       2.892  -2.351   0.434  1.00  0.00    -0.204 NA
ATOM     25  C   UNL     1       3.402  -1.634   1.624  1.00  0.00     0.124 C 
ATOM     26  C   UNL     1       3.155  -3.804   0.521  1.00  0.00     0.124 C 
ENDBRANCH  21  24
ENDBRANCH  12  21
TORSDOF 5
