REMARK SMILES CS(=O)(=O)c1cc(F)cc2c3c(n(Cc4ccc(Cl)cc4)c12)[C@@H](CC(=O)O)CC3
REMARK SMILES IDX 5 1 6 2 7 3 8 4 9 5 10 6 11 7 12 8 13 9 22 10 23 11 28 12
REMARK SMILES IDX 29 13 2 14 1 15 3 16 4 17 14 18 15 19 16 20 21 21 17 22
REMARK SMILES IDX 20 23 18 24 19 25 24 26 25 27 26 28 27 29
REMARK H PARENT 27 30
REMARK Flexibility Score: inf
ROOT
ATOM      1  C   UNL     1       0.760   2.789  -0.200  1.00  0.00     0.094 A 
ATOM      2  C   UNL     1       0.694   3.806  -1.171  1.00  0.00     0.061 A 
ATOM      3  C   UNL     1      -0.110   3.682  -2.292  1.00  0.00     0.125 A 
ATOM      4  F   UNL     1      -0.143   4.681  -3.183  1.00  0.00    -0.207 F 
ATOM      5  C   UNL     1      -0.894   2.561  -2.500  1.00  0.00     0.050 A 
ATOM      6  C   UNL     1      -0.849   1.516  -1.563  1.00  0.00     0.007 A 
ATOM      7  C   UNL     1      -1.531   0.298  -1.479  1.00  0.00    -0.019 A 
ATOM      8  C   UNL     1      -1.110  -0.346  -0.358  1.00  0.00     0.026 A 
ATOM      9  N   UNL     1      -0.116   0.369   0.247  1.00  0.00    -0.339 N 
ATOM     10  C   UNL     1       0.003   1.600  -0.426  1.00  0.00     0.068 A 
ATOM     11  C   UNL     1      -1.750  -1.672  -0.130  1.00  0.00     0.048 C 
ATOM     12  C   UNL     1      -2.406  -1.894  -1.549  1.00  0.00     0.015 C 
ATOM     13  C   UNL     1      -2.540  -0.485  -2.220  1.00  0.00     0.039 C 
ENDROOT
BRANCH   1  14
ATOM     14  S   UNL     1       1.736   3.107   1.261  1.00  0.00     0.177 S 
ATOM     15  C   UNL     1       2.191   4.816   1.285  1.00  0.00     0.164 C 
ATOM     16  O   UNL     1       0.849   2.904   2.392  1.00  0.00    -0.224 OA
ATOM     17  O   UNL     1       2.954   2.335   1.108  1.00  0.00    -0.224 OA
ENDBRANCH   1  14
BRANCH   9  18
ATOM     18  C   UNL     1       0.671  -0.168   1.355  1.00  0.00     0.158 C 
BRANCH  18  19
ATOM     19  C   UNL     1       1.629  -1.252   0.909  1.00  0.00    -0.028 A 
ATOM     20  C   UNL     1       1.529  -2.549   1.437  1.00  0.00     0.007 A 
ATOM     21  C   UNL     1       2.653  -0.975  -0.011  1.00  0.00     0.007 A 
ATOM     22  C   UNL     1       2.416  -3.551   1.035  1.00  0.00     0.021 A 
ATOM     23  C   UNL     1       3.542  -1.976  -0.410  1.00  0.00     0.021 A 
ATOM     24  C   UNL     1       3.417  -3.261   0.113  1.00  0.00     0.041 A 
ATOM     25  Cl  UNL     1       4.510  -4.495  -0.380  1.00  0.00    -0.084 Cl
ENDBRANCH  18  19
ENDBRANCH   9  18
BRANCH  11  26
ATOM     26  C   UNL     1      -2.799  -1.606   0.981  1.00  0.00     0.132 C 
BRANCH  26  27
ATOM     27  C   UNL     1      -3.335  -2.970   1.312  1.00  0.00     0.304 C 
ATOM     28  O   UNL     1      -2.900  -4.048   0.945  1.00  0.00    -0.252 OA
BRANCH  27  29
ATOM     29  O   UNL     1      -4.402  -2.906   2.133  1.00  0.00    -0.481 OA
ATOM     30  H   UNL     1      -4.650  -3.843   2.282  1.00  0.00     0.296 HD
ENDBRANCH  27  29
ENDBRANCH  26  27
ENDBRANCH  11  26
TORSDOF 6
