REMARK SMILES COc1ccc(OC)c(Cc2cnc3nc(N)nc(N)c3c2C)c1
REMARK SMILES IDX 10 1 9 2 3 3 24 4 4 5 5 6 6 7 2 8 1 9 7 10 8 11 11 12 22 13
REMARK SMILES IDX 12 14 23 15 21 16 13 17 14 18 19 19 15 20 18 21 16 22 20 23
REMARK SMILES IDX 17 26
REMARK H PARENT 20 24 20 25 17 27 17 28
REMARK Flexibility Score: inf
ROOT
ATOM      1  C   UNL     1      -0.643   1.611  -0.686  1.00  0.00     0.077 C 
ENDROOT
BRANCH   1   2
ATOM      2  C   UNL     1      -1.867   0.825  -0.256  1.00  0.00     0.002 A 
ATOM      3  C   UNL     1      -3.997  -0.206  -0.875  1.00  0.00     0.119 A 
ATOM      4  C   UNL     1      -2.859   0.530  -1.211  1.00  0.00     0.054 A 
ATOM      5  C   UNL     1      -4.153  -0.649   0.434  1.00  0.00     0.050 A 
ATOM      6  C   UNL     1      -3.179  -0.360   1.398  1.00  0.00     0.050 A 
ATOM      7  C   UNL     1      -2.035   0.372   1.064  1.00  0.00     0.122 A 
BRANCH   3   8
ATOM      8  O   UNL     1      -4.868  -0.415  -1.908  1.00  0.00    -0.497 OA
ATOM      9  C   UNL     1      -6.022  -1.198  -1.628  1.00  0.00     0.278 C 
ENDBRANCH   3   8
BRANCH   7  10
ATOM     10  O   UNL     1      -1.046   0.709   1.949  1.00  0.00    -0.496 OA
ATOM     11  C   UNL     1      -1.088   0.103   3.235  1.00  0.00     0.278 C 
ENDBRANCH   7  10
ENDBRANCH   1   2
BRANCH   1  12
ATOM     12  C   UNL     1       0.612   0.777  -0.841  1.00  0.00    -0.021 A 
ATOM     13  C   UNL     1       1.767   0.849  -0.037  1.00  0.00    -0.031 A 
ATOM     14  C   UNL     1       0.637  -0.148  -1.875  1.00  0.00     0.118 A 
ATOM     15  C   UNL     1       1.844   1.822   1.112  1.00  0.00     0.045 C 
ATOM     16  C   UNL     1       2.890  -0.032  -0.330  1.00  0.00     0.065 A 
ATOM     17  N   UNL     1       1.670  -0.962  -2.157  1.00  0.00    -0.236 NA
ATOM     18  C   UNL     1       2.763  -0.919  -1.408  1.00  0.00     0.167 A 
ATOM     19  C   UNL     1       4.146  -0.146   0.315  1.00  0.00     0.138 A 
ATOM     20  N   UNL     1       3.702  -1.772  -1.776  1.00  0.00    -0.193 NA
ATOM     21  N   UNL     1       5.094  -1.012  -0.057  1.00  0.00    -0.196 NA
ATOM     22  C   UNL     1       4.823  -1.805  -1.080  1.00  0.00     0.224 A 
BRANCH  19  23
ATOM     23  N   UNL     1       4.524   0.638   1.411  1.00  0.00    -0.383 N 
ATOM     24  H   UNL     1       3.909   0.469   2.199  1.00  0.00     0.158 HD
ATOM     25  H   UNL     1       4.518   1.622   1.170  1.00  0.00     0.158 HD
ENDBRANCH  19  23
BRANCH  22  26
ATOM     26  N   UNL     1       5.801  -2.695  -1.476  1.00  0.00    -0.368 N 
ATOM     27  H   UNL     1       6.706  -2.358  -1.181  1.00  0.00     0.159 HD
ATOM     28  H   UNL     1       5.679  -2.923  -2.453  1.00  0.00     0.159 HD
ENDBRANCH  22  26
ENDBRANCH   1  12
TORSDOF 6
