REMARK SMILES O=C(Nc1ccc(OC(F)(F)Cl)cc1)c1cnc(N2CC[C@@H](O)C2)c(-c2cc[nH]n2)c1
REMARK SMILES IDX 1 1 2 2 3 3 15 5 16 6 31 7 17 8 25 9 18 10 26 11 27 12 30 13
REMARK SMILES IDX 28 14 29 15 19 17 20 18 24 19 21 20 22 21 23 22 4 24 5 25
REMARK SMILES IDX 14 26 6 27 13 28 7 29 8 30 9 31 10 32 11 33 12 34
REMARK H PARENT 3 4 29 16 23 23
REMARK Flexibility Score: inf
ROOT
ATOM      1  O   UNL     1       1.527  -1.798  -1.853  1.00  0.00    -0.269 OA
ATOM      2  C   UNL     1       1.323  -1.066  -0.890  1.00  0.00     0.257 C 
ATOM      3  N   UNL     1       2.287  -0.557  -0.031  1.00  0.00    -0.322 N 
ATOM      4  H   UNL     1       1.974  -0.048   0.784  1.00  0.00     0.170 HD
ENDROOT
BRANCH   2   5
ATOM      5  C   UNL     1      -0.088  -0.696  -0.593  1.00  0.00     0.059 A 
ATOM      6  C   UNL     1      -1.100  -1.451  -1.168  1.00  0.00     0.127 A 
ATOM      7  C   UNL     1      -0.476   0.384   0.202  1.00  0.00     0.029 A 
ATOM      8  N   UNL     1      -2.426  -1.199  -1.014  1.00  0.00    -0.238 NA
ATOM      9  C   UNL     1      -1.842   0.678   0.399  1.00  0.00     0.045 A 
ATOM     10  C   UNL     1      -2.796  -0.134  -0.252  1.00  0.00     0.138 A 
BRANCH   9  11
ATOM     11  C   UNL     1      -2.194   1.801   1.280  1.00  0.00     0.096 A 
ATOM     12  C   UNL     1      -3.385   2.007   2.035  1.00  0.00     0.050 A 
ATOM     13  N   UNL     1      -1.314   2.796   1.523  1.00  0.00    -0.176 NA
ATOM     14  C   UNL     1      -3.190   3.173   2.730  1.00  0.00     0.106 A 
ATOM     15  N   UNL     1      -1.951   3.612   2.375  1.00  0.00    -0.285 N 
ATOM     16  H   UNL     1      -1.472   4.454   2.681  1.00  0.00     0.189 HD
ENDBRANCH   9  11
BRANCH  10  17
ATOM     17  N   UNL     1      -4.169   0.203  -0.254  1.00  0.00    -0.353 N 
ATOM     18  C   UNL     1      -4.438   1.081  -1.424  1.00  0.00     0.121 C 
ATOM     19  C   UNL     1      -5.076  -0.966  -0.340  1.00  0.00     0.149 C 
ATOM     20  C   UNL     1      -5.658   0.474  -2.131  1.00  0.00     0.055 C 
ATOM     21  C   UNL     1      -5.560  -1.003  -1.797  1.00  0.00     0.135 C 
BRANCH  21  22
ATOM     22  O   UNL     1      -4.629  -1.638  -2.669  1.00  0.00    -0.391 OA
ATOM     23  H   UNL     1      -3.757  -1.574  -2.222  1.00  0.00     0.211 HD
ENDBRANCH  21  22
ENDBRANCH  10  17
ENDBRANCH   2   5
BRANCH   3  24
ATOM     24  C   UNL     1       3.685  -0.742  -0.113  1.00  0.00     0.041 A 
ATOM     25  C   UNL     1       4.463  -0.177   0.904  1.00  0.00     0.030 A 
ATOM     26  C   UNL     1       4.328  -1.443  -1.131  1.00  0.00     0.030 A 
ATOM     27  C   UNL     1       5.857  -0.333   0.920  1.00  0.00     0.049 A 
ATOM     28  C   UNL     1       5.721  -1.603  -1.113  1.00  0.00     0.049 A 
ATOM     29  C   UNL     1       6.496  -1.061  -0.084  1.00  0.00     0.127 A 
BRANCH  29  30
ATOM     30  O   UNL     1       7.832  -1.330  -0.182  1.00  0.00    -0.420 OA
BRANCH  30  31
ATOM     31  C   UNL     1       8.730  -0.790   0.782  1.00  0.00     0.487 C 
ATOM     32  F   UNL     1       9.988  -0.914   0.271  1.00  0.00    -0.149 F 
ATOM     33  F   UNL     1       8.523   0.549   0.930  1.00  0.00    -0.149 F 
ATOM     34  Cl  UNL     1       8.660  -1.632   2.338  1.00  0.00     0.002 Cl
ENDBRANCH  30  31
ENDBRANCH  29  30
ENDBRANCH   3  24
TORSDOF 7
