REMARK SMILES C[N+]1(C)[C@@H]2CC[C@H]1C[C@@H](OC(=O)C(O)c1ccccc1)C2
REMARK SMILES IDX 11 1 12 2 10 3 9 4 1 5 2 6 3 7 4 8 7 9 5 10 21 11 6 12 8 13
REMARK SMILES IDX 13 14 14 15 15 17 16 18 20 19 17 20 19 21 18 22
REMARK H PARENT 14 16
REMARK Flexibility Score: inf
ROOT
ATOM      1  C   UNL     1       1.556  -0.255  -0.969  1.00  0.00     0.339 C 
ATOM      2  O   UNL     1       1.737   0.317  -2.037  1.00  0.00    -0.249 OA
ENDROOT
BRANCH   1   3
ATOM      3  O   UNL     1       0.462  -0.043  -0.172  1.00  0.00    -0.460 OA
BRANCH   3   4
ATOM      4  C   UNL     1      -0.505   0.919  -0.643  1.00  0.00     0.188 C 
ATOM      5  C   UNL     1      -3.828   1.792  -0.878  1.00  0.00     0.334 C 
ATOM      6  N   UNL     1      -3.440   0.464  -0.229  1.00  0.00    -0.323 N 
ATOM      7  C   UNL     1      -4.783  -0.180   0.178  1.00  0.00     0.334 C 
ATOM      8  C   UNL     1      -2.616  -0.484  -1.123  1.00  0.00     0.189 C 
ATOM      9  C   UNL     1      -2.483   0.573   0.975  1.00  0.00     0.189 C 
ATOM     10  C   UNL     1      -2.163  -1.577  -0.142  1.00  0.00     0.071 C 
ATOM     11  C   UNL     1      -1.410   0.270  -1.708  1.00  0.00     0.110 C 
ATOM     12  C   UNL     1      -2.080  -0.889   1.226  1.00  0.00     0.071 C 
ATOM     13  C   UNL     1      -1.264   1.430   0.594  1.00  0.00     0.110 C 
ENDBRANCH   3   4
ENDBRANCH   1   3
BRANCH   1  14
ATOM     14  C   UNL     1       2.505  -1.304  -0.353  1.00  0.00     0.254 C 
BRANCH  14  15
ATOM     15  O   UNL     1       1.921  -2.063   0.709  1.00  0.00    -0.377 OA
ATOM     16  H   UNL     1       2.544  -2.049   1.458  1.00  0.00     0.212 HD
ENDBRANCH  14  15
BRANCH  14  17
ATOM     17  C   UNL     1       3.797  -0.667   0.119  1.00  0.00    -0.008 A 
ATOM     18  C   UNL     1       3.793   0.298   1.142  1.00  0.00     0.007 A 
ATOM     19  C   UNL     1       5.022  -1.045  -0.450  1.00  0.00     0.007 A 
ATOM     20  C   UNL     1       4.988   0.873   1.578  1.00  0.00     0.000 A 
ATOM     21  C   UNL     1       6.214  -0.467  -0.011  1.00  0.00     0.000 A 
ATOM     22  C   UNL     1       6.197   0.491   1.000  1.00  0.00     0.000 A 
ENDBRANCH  14  17
ENDBRANCH   1  14
TORSDOF 5
