REMARK SMILES Nc1cccc2c1C(=O)N(C1CCC(=O)NC1=O)C2=O
REMARK SMILES IDX 2 1 3 2 4 3 5 4 6 5 7 6 8 7 9 8 10 9 19 10 20 11 1 12 11 15
REMARK SMILES IDX 12 16 17 17 13 18 16 19 18 20 14 21 15 23
REMARK H PARENT 1 13 1 14 16 22
REMARK Flexibility Score: inf
ROOT
ATOM      1  C   UNL     1      -3.138   0.700  -0.540  1.00  0.00     0.045 A 
ATOM      2  C   UNL     1      -4.308  -0.031  -0.289  1.00  0.00     0.026 A 
ATOM      3  C   UNL     1      -4.264  -1.366   0.173  1.00  0.00     0.003 A 
ATOM      4  C   UNL     1      -3.043  -1.991   0.429  1.00  0.00     0.015 A 
ATOM      5  C   UNL     1      -1.901  -1.246   0.216  1.00  0.00     0.055 A 
ATOM      6  C   UNL     1      -1.945   0.060  -0.243  1.00  0.00     0.076 A 
ATOM      7  C   UNL     1      -0.561   0.528  -0.346  1.00  0.00     0.264 C 
ATOM      8  O   UNL     1      -0.236   1.641  -0.718  1.00  0.00    -0.268 OA
ATOM      9  N   UNL     1       0.241  -0.515   0.032  1.00  0.00    -0.262 N 
ATOM     10  C   UNL     1      -0.499  -1.601   0.414  1.00  0.00     0.262 C 
ATOM     11  O   UNL     1      -0.115  -2.677   0.829  1.00  0.00    -0.269 OA
ENDROOT
BRANCH   1  12
ATOM     12  N   UNL     1      -3.209   2.057  -0.854  1.00  0.00    -0.398 N 
ATOM     13  H   UNL     1      -4.017   2.345  -1.396  1.00  0.00     0.156 HD
ATOM     14  H   UNL     1      -2.331   2.454  -1.195  1.00  0.00     0.156 HD
ENDBRANCH   1  12
BRANCH   9  15
ATOM     15  C   UNL     1       1.684  -0.447   0.200  1.00  0.00     0.184 C 
ATOM     16  C   UNL     1       2.430   0.143  -0.994  1.00  0.00     0.046 C 
ATOM     17  C   UNL     1       2.009   0.346   1.471  1.00  0.00     0.249 C 
ATOM     18  C   UNL     1       3.924   0.123  -0.710  1.00  0.00     0.103 C 
ATOM     19  N   UNL     1       3.286   0.854   1.546  1.00  0.00    -0.295 N 
ATOM     20  O   UNL     1       1.228   0.484   2.411  1.00  0.00    -0.272 OA
ATOM     21  C   UNL     1       4.250   0.863   0.567  1.00  0.00     0.226 C 
ATOM     22  H   UNL     1       3.508   1.366   2.390  1.00  0.00     0.172 HD
ATOM     23  O   UNL     1       5.336   1.404   0.753  1.00  0.00    -0.275 OA
ENDBRANCH   9  15
TORSDOF 2
