REMARK SMILES OC(Cn1cncn1)(Cn1cncn1)c1ccc(F)cc1F
REMARK SMILES IDX 2 1 1 2 3 4 4 5 5 6 8 7 6 8 7 9 9 10 10 11 11 12 14 13 12 14
REMARK SMILES IDX 13 15 15 16 16 17 21 18 17 19 20 20 22 21 18 22 19 23
REMARK H PARENT 1 3
REMARK Flexibility Score: inf
ROOT
ATOM      1  C   UNL     1      -0.257  -0.630   0.931  1.00  0.00     0.132 C 
ENDROOT
BRANCH   1   2
ATOM      2  O   UNL     1      -1.179  -0.792   2.039  1.00  0.00    -0.381 OA
ATOM      3  H   UNL     1      -0.742  -0.530   2.867  1.00  0.00     0.212 HD
ENDBRANCH   1   2
BRANCH   1   4
ATOM      4  C   UNL     1      -0.888  -1.396  -0.266  1.00  0.00     0.188 C 
BRANCH   4   5
ATOM      5  N   UNL     1      -2.191  -0.915  -0.684  1.00  0.00    -0.250 N 
ATOM      6  C   UNL     1      -2.477   0.040  -1.610  1.00  0.00     0.219 A 
ATOM      7  N   UNL     1      -3.317  -1.534  -0.276  1.00  0.00    -0.160 NA
ATOM      8  N   UNL     1      -3.777   0.125  -1.771  1.00  0.00    -0.224 NA
ATOM      9  C   UNL     1      -4.251  -0.846  -0.937  1.00  0.00     0.246 A 
ENDBRANCH   4   5
ENDBRANCH   1   4
BRANCH   1  10
ATOM     10  C   UNL     1       1.043  -1.347   1.401  1.00  0.00     0.188 C 
BRANCH  10  11
ATOM     11  N   UNL     1       2.111  -1.491   0.445  1.00  0.00    -0.250 N 
ATOM     12  C   UNL     1       2.355  -2.541  -0.384  1.00  0.00     0.219 A 
ATOM     13  N   UNL     1       3.105  -0.589   0.386  1.00  0.00    -0.160 NA
ATOM     14  N   UNL     1       3.465  -2.323  -1.049  1.00  0.00    -0.224 NA
ATOM     15  C   UNL     1       3.892  -1.125  -0.551  1.00  0.00     0.246 A 
ENDBRANCH  10  11
ENDBRANCH   1  10
BRANCH   1  16
ATOM     16  C   UNL     1      -0.035   0.867   0.684  1.00  0.00     0.023 A 
ATOM     17  C   UNL     1      -0.439   1.845   1.615  1.00  0.00     0.013 A 
ATOM     18  C   UNL     1       0.595   1.327  -0.486  1.00  0.00     0.132 A 
ATOM     19  C   UNL     1      -0.202   3.204   1.384  1.00  0.00     0.040 A 
ATOM     20  C   UNL     1       0.837   2.676  -0.724  1.00  0.00     0.078 A 
ATOM     21  F   UNL     1       0.952   0.456  -1.438  1.00  0.00    -0.206 F 
ATOM     22  C   UNL     1       0.438   3.606   0.220  1.00  0.00     0.126 A 
ATOM     23  F   UNL     1       0.662   4.908   0.004  1.00  0.00    -0.207 F 
ENDBRANCH   1  16
TORSDOF 6
