REMARK SMILES c1ccc2c(-c3cnn4cc(-c5ccc(N6CCNCC6)cc5)cnc34)ccnc2c1
REMARK SMILES IDX 11 1 10 2 9 3 8 4 7 5 6 6 26 7 25 8 24 9 12 10 15 11 14 12
REMARK SMILES IDX 22 13 13 14 23 15 16 16 18 17 17 18 19 19 20 20 21 22 5 23
REMARK SMILES IDX 27 24 4 25 28 26 30 27 3 28 29 29 31 30 2 31 1 32
REMARK H PARENT 19 21
REMARK Flexibility Score: inf
ROOT
ATOM      1  C   UNL     1       0.023  -0.499   0.089  1.00  0.00     0.018 C 
ATOM      2  C   UNL     1       0.654  -1.173  -0.888  1.00  0.00     0.125 C 
ATOM      3  N   UNL     1       2.040  -1.284  -0.896  1.00  0.00    -0.221 N 
ATOM      4  N   UNL     1       2.805  -1.933  -1.809  1.00  0.00    -0.174 NA
ATOM      5  C   UNL     1       4.054  -1.749  -1.382  1.00  0.00     0.146 A 
ATOM      6  C   UNL     1       4.128  -0.970  -0.210  1.00  0.00     0.047 A 
ATOM      7  C   UNL     1       2.813  -0.692   0.110  1.00  0.00     0.162 A 
ATOM      8  N   UNL     1       2.240   0.002   1.143  1.00  0.00    -0.236 NA
ATOM      9  C   UNL     1       0.942   0.086   1.121  1.00  0.00     0.124 C 
ENDROOT
BRANCH   1  10
ATOM     10  C   UNL     1      -1.432  -0.328   0.144  1.00  0.00    -0.015 A 
ATOM     11  C   UNL     1      -4.271   0.017   0.278  1.00  0.00     0.037 A 
ATOM     12  C   UNL     1      -3.685  -1.240   0.062  1.00  0.00     0.026 A 
ATOM     13  C   UNL     1      -3.385   1.095   0.418  1.00  0.00     0.026 A 
ATOM     14  C   UNL     1      -2.295  -1.416  -0.004  1.00  0.00     0.011 A 
ATOM     15  C   UNL     1      -1.993   0.932   0.357  1.00  0.00     0.011 A 
BRANCH  11  16
ATOM     16  N   UNL     1      -5.645   0.178   0.333  1.00  0.00    -0.369 N 
ATOM     17  C   UNL     1      -7.819  -0.434   1.396  1.00  0.00     0.102 C 
ATOM     18  C   UNL     1      -6.526  -0.940   0.714  1.00  0.00     0.132 C 
ATOM     19  N   UNL     1      -8.611   0.536   0.621  1.00  0.00    -0.313 NA
ATOM     20  C   UNL     1      -7.748   1.363  -0.243  1.00  0.00     0.102 C 
ATOM     21  H   UNL     1      -9.273   0.038   0.027  1.00  0.00     0.122 HD
ATOM     22  C   UNL     1      -6.280   1.501   0.221  1.00  0.00     0.132 C 
ENDBRANCH  11  16
ENDBRANCH   1  10
BRANCH   6  23
ATOM     23  C   UNL     1       5.283  -0.550   0.567  1.00  0.00    -0.002 A 
ATOM     24  C   UNL     1       5.357  -0.955   1.901  1.00  0.00     0.029 A 
ATOM     25  C   UNL     1       6.335   0.222   0.007  1.00  0.00     0.008 A 
ATOM     26  C   UNL     1       6.472  -0.603   2.630  1.00  0.00     0.112 A 
ATOM     27  C   UNL     1       7.431   0.513   0.851  1.00  0.00     0.071 A 
ATOM     28  C   UNL     1       6.352   0.729  -1.320  1.00  0.00     0.011 A 
ATOM     29  N   UNL     1       7.502   0.105   2.128  1.00  0.00    -0.256 NA
ATOM     30  C   UNL     1       8.490   1.257   0.348  1.00  0.00     0.029 A 
ATOM     31  C   UNL     1       7.428   1.476  -1.799  1.00  0.00     0.001 A 
ATOM     32  C   UNL     1       8.502   1.737  -0.963  1.00  0.00     0.002 A 
ENDBRANCH   6  23
TORSDOF 3
