REMARK SMILES c1cn2cc(-c3ccc4cn[nH]c4c3)nc(Nc3ccc(N4CCOCC4)cc3)c2n1
REMARK SMILES IDX 17 1 16 2 15 3 5 4 4 5 3 6 2 7 1 8 31 9 30 10 18 12 21 13
REMARK SMILES IDX 20 14 28 15 19 16 29 17 22 18 24 19 23 20 25 21 26 22 27 23
REMARK SMILES IDX 6 24 14 25 7 26 13 27 8 28 9 29 12 30 10 31 11 32
REMARK H PARENT 17 11 12 33
REMARK Flexibility Score: inf
ROOT
ATOM      1  N   UNL     1      -0.215  -2.328  -1.137  1.00  0.00    -0.337 N 
ATOM      2  C   UNL     1       1.157  -2.304  -0.979  1.00  0.00     0.175 C 
ATOM      3  N   UNL     1       1.815  -1.331  -0.393  1.00  0.00    -0.225 NA
ATOM      4  C   UNL     1       3.199  -1.384  -0.273  1.00  0.00     0.090 C 
ATOM      5  C   UNL     1       3.933  -2.424  -0.719  1.00  0.00     0.122 C 
ATOM      6  N   UNL     1       3.275  -3.465  -1.333  1.00  0.00    -0.302 N 
ATOM      7  C   UNL     1       3.713  -4.639  -1.883  1.00  0.00     0.113 A 
ATOM      8  C   UNL     1       2.573  -5.268  -2.340  1.00  0.00     0.132 A 
ATOM      9  N   UNL     1       1.450  -4.515  -2.085  1.00  0.00    -0.234 NA
ATOM     10  C   UNL     1       1.917  -3.441  -1.480  1.00  0.00     0.180 A 
ATOM     11  H   UNL     1      -0.556  -3.167  -1.596  1.00  0.00     0.168 HD
ENDROOT
BRANCH   1  12
ATOM     12  C   UNL     1      -1.185  -1.344  -0.895  1.00  0.00     0.040 A 
ATOM     13  C   UNL     1      -3.288   0.534  -0.352  1.00  0.00     0.037 A 
ATOM     14  C   UNL     1      -3.564  -0.776  -0.753  1.00  0.00     0.028 A 
ATOM     15  C   UNL     1      -1.934   0.881  -0.244  1.00  0.00     0.028 A 
ATOM     16  C   UNL     1      -2.536  -1.697  -1.010  1.00  0.00     0.028 A 
ATOM     17  C   UNL     1      -0.904  -0.038  -0.499  1.00  0.00     0.028 A 
BRANCH  13  18
ATOM     18  N   UNL     1      -4.277   1.496  -0.096  1.00  0.00    -0.367 N 
ATOM     19  C   UNL     1      -5.170   3.274   1.379  1.00  0.00     0.181 C 
ATOM     20  C   UNL     1      -4.225   2.065   1.274  1.00  0.00     0.145 C 
ATOM     21  O   UNL     1      -6.515   2.933   1.005  1.00  0.00    -0.378 OA
ATOM     22  C   UNL     1      -6.538   2.455  -0.349  1.00  0.00     0.181 C 
ATOM     23  C   UNL     1      -5.664   1.201  -0.514  1.00  0.00     0.145 C 
ENDBRANCH  13  18
ENDBRANCH   1  12
BRANCH   4  24
ATOM     24  C   UNL     1       3.861  -0.250   0.418  1.00  0.00     0.004 A 
ATOM     25  C   UNL     1       3.255   0.288   1.569  1.00  0.00     0.038 A 
ATOM     26  C   UNL     1       5.052   0.315  -0.067  1.00  0.00     0.011 A 
ATOM     27  C   UNL     1       3.890   1.362   2.202  1.00  0.00     0.066 A 
ATOM     28  C   UNL     1       5.673   1.394   0.583  1.00  0.00     0.013 A 
ATOM     29  C   UNL     1       5.076   1.919   1.740  1.00  0.00     0.020 A 
ATOM     30  N   UNL     1       3.561   2.086   3.318  1.00  0.00    -0.278 N 
ATOM     31  C   UNL     1       5.358   2.957   2.656  1.00  0.00     0.143 A 
ATOM     32  N   UNL     1       4.440   3.059   3.621  1.00  0.00    -0.183 NA
ATOM     33  H   UNL     1       2.752   1.964   3.915  1.00  0.00     0.190 HD
ENDBRANCH   4  24
TORSDOF 3
