REMARK SMILES CC(C)[N+]1(C)[C@@H]2CC[C@H]1C[C@@H](OC(=O)C(CO)c1ccccc1)C2
REMARK SMILES IDX 13 1 14 2 12 3 11 4 4 5 5 6 6 7 9 8 7 9 24 10 8 11 10 12
REMARK SMILES IDX 2 13 1 14 3 15 15 16 16 17 17 18 18 20 19 21 23 22 20 23
REMARK SMILES IDX 22 24 21 25
REMARK H PARENT 17 19
REMARK Flexibility Score: inf
ROOT
ATOM      1  C   UNL     1       2.093  -0.312  -0.015  1.00  0.00     0.316 C 
ATOM      2  O   UNL     1       2.330  -1.199  -0.826  1.00  0.00    -0.251 OA
ENDROOT
BRANCH   1   3
ATOM      3  O   UNL     1       0.825  -0.050   0.446  1.00  0.00    -0.461 OA
BRANCH   3   4
ATOM      4  C   UNL     1      -0.177  -1.031   0.096  1.00  0.00     0.188 C 
ATOM      5  N   UNL     1      -3.062  -0.277  -0.433  1.00  0.00    -0.319 N 
ATOM      6  C   UNL     1      -3.426  -1.748  -0.675  1.00  0.00     0.335 C 
ATOM      7  C   UNL     1      -2.391  -0.009   0.947  1.00  0.00     0.189 C 
ATOM      8  C   UNL     1      -1.900   0.240  -1.337  1.00  0.00     0.189 C 
ATOM      9  C   UNL     1      -1.857   1.422   0.800  1.00  0.00     0.071 C 
ATOM     10  C   UNL     1      -1.243  -1.002   1.200  1.00  0.00     0.110 C 
ATOM     11  C   UNL     1      -1.508   1.575  -0.682  1.00  0.00     0.071 C 
ATOM     12  C   UNL     1      -0.722  -0.747  -1.312  1.00  0.00     0.110 C 
BRANCH   5  13
ATOM     13  C   UNL     1      -4.376   0.611  -0.644  1.00  0.00     0.179 C 
ATOM     14  C   UNL     1      -5.396   0.416   0.482  1.00  0.00     0.075 C 
ATOM     15  C   UNL     1      -5.035   0.345  -2.002  1.00  0.00     0.075 C 
ENDBRANCH   5  13
ENDBRANCH   3   4
ENDBRANCH   1   3
BRANCH   1  16
ATOM     16  C   UNL     1       3.090   0.701   0.534  1.00  0.00     0.155 C 
BRANCH  16  17
ATOM     17  C   UNL     1       2.916   0.923   2.045  1.00  0.00     0.176 C 
BRANCH  17  18
ATOM     18  O   UNL     1       2.871  -0.304   2.769  1.00  0.00    -0.395 OA
ATOM     19  H   UNL     1       3.181  -0.116   3.674  1.00  0.00     0.210 HD
ENDBRANCH  17  18
ENDBRANCH  16  17
BRANCH  16  20
ATOM     20  C   UNL     1       4.538   0.378   0.185  1.00  0.00    -0.032 A 
ATOM     21  C   UNL     1       5.302   1.292  -0.559  1.00  0.00     0.005 A 
ATOM     22  C   UNL     1       5.144  -0.816   0.606  1.00  0.00     0.005 A 
ATOM     23  C   UNL     1       6.635   1.017  -0.872  1.00  0.00     0.000 A 
ATOM     24  C   UNL     1       6.477  -1.088   0.291  1.00  0.00     0.000 A 
ATOM     25  C   UNL     1       7.222  -0.172  -0.447  1.00  0.00     0.000 A 
ENDBRANCH  16  20
ENDBRANCH   1  16
TORSDOF 7
