REMARK SMILES O=c1[nH]cnc2c1ncn2[C@H]1CC[C@@H](CO)O1
REMARK SMILES IDX 11 1 12 2 13 3 14 4 17 5 10 6 1 7 2 8 3 9 7 10 4 11 6 13
REMARK SMILES IDX 8 14 5 15 9 16 15 17 16 18
REMARK H PARENT 3 12 16 19
REMARK Flexibility Score: inf
ROOT
ATOM      1  C   UNL     1      -0.847  -0.727   0.389  1.00  0.00     0.222 C 
ATOM      2  C   UNL     1      -1.695   0.458   0.835  1.00  0.00     0.058 C 
ATOM      3  C   UNL     1      -2.161   1.047  -0.475  1.00  0.00     0.039 C 
ATOM      4  C   UNL     1      -2.360  -0.202  -1.318  1.00  0.00     0.146 C 
ATOM      5  O   UNL     1      -1.321  -1.119  -0.917  1.00  0.00    -0.352 OA
ENDROOT
BRANCH   1   6
ATOM      6  N   UNL     1       0.573  -0.430   0.328  1.00  0.00    -0.288 N 
ATOM      7  O   UNL     1       4.929   0.306   1.484  1.00  0.00    -0.267 OA
ATOM      8  C   UNL     1       3.775   0.025   1.787  1.00  0.00     0.278 C 
ATOM      9  N   UNL     1       3.407  -0.234   3.100  1.00  0.00    -0.311 N 
ATOM     10  C   UNL     1       2.653  -0.080   0.876  1.00  0.00     0.173 A 
ATOM     11  C   UNL     1       2.118  -0.548   3.490  1.00  0.00     0.202 C 
ATOM     12  H   UNL     1       4.153  -0.173   3.776  1.00  0.00     0.171 HD
ATOM     13  C   UNL     1       1.421  -0.406   1.402  1.00  0.00     0.169 A 
ATOM     14  N   UNL     1       2.588   0.101  -0.480  1.00  0.00    -0.229 NA
ATOM     15  N   UNL     1       1.094  -0.646   2.696  1.00  0.00    -0.218 NA
ATOM     16  C   UNL     1       1.321  -0.118  -0.779  1.00  0.00     0.204 A 
ENDBRANCH   1   6
BRANCH   4  17
ATOM     17  C   UNL     1      -2.322   0.027  -2.829  1.00  0.00     0.188 C 
BRANCH  17  18
ATOM     18  O   UNL     1      -1.164   0.763  -3.212  1.00  0.00    -0.394 OA
ATOM     19  H   UNL     1      -1.116   0.739  -4.183  1.00  0.00     0.210 HD
ENDBRANCH  17  18
ENDBRANCH   4  17
TORSDOF 3
