REMARK SMILES c1ccc2c(c1)CCCC2C1=NCCN1
REMARK SMILES IDX 1 1 2 2 3 3 4 4 5 5 6 6 7 7 8 8 9 9 10 10 11 11 12 12 15 13
REMARK SMILES IDX 13 14 14 15
REMARK H PARENT 15 16
REMARK Flexibility Score: inf
ROOT
ATOM      1  C   UNL     1      -2.935  -1.943  -0.762  1.00  0.00     0.000 A 
ATOM      2  C   UNL     1      -2.010  -2.560   0.075  1.00  0.00     0.000 A 
ATOM      3  C   UNL     1      -1.024  -1.799   0.701  1.00  0.00     0.005 A 
ATOM      4  C   UNL     1      -0.948  -0.410   0.494  1.00  0.00    -0.034 A 
ATOM      5  C   UNL     1      -1.880   0.210  -0.358  1.00  0.00    -0.044 A 
ATOM      6  C   UNL     1      -2.875  -0.566  -0.972  1.00  0.00     0.004 A 
ATOM      7  C   UNL     1      -1.884   1.703  -0.573  1.00  0.00     0.036 C 
ATOM      8  C   UNL     1      -0.553   2.366  -0.232  1.00  0.00     0.006 C 
ATOM      9  C   UNL     1      -0.048   1.896   1.128  1.00  0.00     0.017 C 
ATOM     10  C   UNL     1       0.163   0.375   1.171  1.00  0.00     0.085 C 
ENDROOT
BRANCH  10  11
ATOM     11  C   UNL     1       1.534   0.029   0.599  1.00  0.00     0.104 C 
ATOM     12  N   UNL     1       2.566  -0.155   1.386  1.00  0.00    -0.270 NA
ATOM     13  N   UNL     1       1.762  -0.115  -0.751  1.00  0.00    -0.371 N 
ATOM     14  C   UNL     1       3.684  -0.470   0.451  1.00  0.00     0.165 C 
ATOM     15  C   UNL     1       3.042  -0.761  -0.908  1.00  0.00     0.137 C 
ATOM     16  H   UNL     1       0.985  -0.467  -1.302  1.00  0.00     0.161 HD
ENDBRANCH  10  11
TORSDOF 1
