REMARK SMILES CC(C)(CO)n1cc(C(=O)c2cncc(NC(=O)Cc3ccc(Cl)cn3)c2)c2cnc(N)nc21
REMARK SMILES IDX 9 1 10 2 8 3 6 4 7 5 34 6 28 7 33 8 29 9 31 10 30 11 2 12
REMARK SMILES IDX 1 13 3 14 4 15 5 16 32 18 11 21 27 22 12 23 15 24 13 25
REMARK SMILES IDX 14 26 16 27 17 28 18 30 19 31 20 32 21 33 26 34 22 35 25 36
REMARK SMILES IDX 23 37 24 38
REMARK H PARENT 5 17 32 19 32 20 16 29
REMARK Flexibility Score: inf
ROOT
ATOM      1  C   UNL     1      -0.390   0.430  -0.834  1.00  0.00     0.196 C 
ATOM      2  O   UNL     1      -0.013   0.594  -1.994  1.00  0.00    -0.288 OA
ENDROOT
BRANCH   1   3
ATOM      3  C   UNL     1      -1.799   0.223  -0.503  1.00  0.00     0.051 A 
ATOM      4  N   UNL     1      -4.044   0.325  -0.766  1.00  0.00    -0.324 N 
ATOM      5  C   UNL     1      -2.830   0.659  -1.324  1.00  0.00     0.101 A 
ATOM      6  C   UNL     1      -3.798  -0.351   0.415  1.00  0.00     0.146 A 
ATOM      7  C   UNL     1      -2.423  -0.457   0.589  1.00  0.00     0.049 A 
ATOM      8  N   UNL     1      -4.733  -0.841   1.246  1.00  0.00    -0.195 NA
ATOM      9  C   UNL     1      -2.016  -1.180   1.711  1.00  0.00     0.128 A 
ATOM     10  C   UNL     1      -4.232  -1.468   2.313  1.00  0.00     0.221 A 
ATOM     11  N   UNL     1      -2.936  -1.679   2.567  1.00  0.00    -0.221 NA
BRANCH   4  12
ATOM     12  C   UNL     1      -5.385   0.598  -1.341  1.00  0.00     0.063 C 
ATOM     13  C   UNL     1      -6.228   1.438  -0.355  1.00  0.00     0.037 C 
ATOM     14  C   UNL     1      -6.111  -0.735  -1.634  1.00  0.00     0.037 C 
BRANCH  12  15
ATOM     15  C   UNL     1      -5.289   1.391  -2.683  1.00  0.00     0.184 C 
BRANCH  15  16
ATOM     16  O   UNL     1      -6.563   1.669  -3.263  1.00  0.00    -0.394 OA
ATOM     17  H   UNL     1      -6.912   2.477  -2.849  1.00  0.00     0.210 HD
ENDBRANCH  15  16
ENDBRANCH  12  15
ENDBRANCH   4  12
BRANCH  10  18
ATOM     18  N   UNL     1      -5.133  -1.995   3.218  1.00  0.00    -0.368 N 
ATOM     19  H   UNL     1      -6.012  -2.179   2.756  1.00  0.00     0.159 HD
ATOM     20  H   UNL     1      -4.699  -2.763   3.713  1.00  0.00     0.159 HD
ENDBRANCH  10  18
ENDBRANCH   1   3
BRANCH   1  21
ATOM     21  C   UNL     1       0.636   0.440   0.228  1.00  0.00     0.043 A 
ATOM     22  C   UNL     1       1.875  -0.167  -0.005  1.00  0.00     0.041 A 
ATOM     23  C   UNL     1       0.430   1.070   1.446  1.00  0.00     0.123 A 
ATOM     24  C   UNL     1       2.847  -0.178   0.999  1.00  0.00     0.060 A 
ATOM     25  N   UNL     1       1.339   1.064   2.448  1.00  0.00    -0.262 NA
ATOM     26  C   UNL     1       2.523   0.439   2.205  1.00  0.00     0.137 A 
BRANCH  24  27
ATOM     27  N   UNL     1       4.071  -0.814   0.713  1.00  0.00    -0.324 N 
ATOM     28  C   UNL     1       5.172  -0.914   1.548  1.00  0.00     0.230 C 
ATOM     29  H   UNL     1       4.202  -1.146  -0.242  1.00  0.00     0.169 HD
ATOM     30  O   UNL     1       5.261  -0.453   2.682  1.00  0.00    -0.274 OA
BRANCH  28  31
ATOM     31  C   UNL     1       6.329  -1.655   0.909  1.00  0.00     0.156 C 
BRANCH  31  32
ATOM     32  C   UNL     1       7.107  -0.737   0.003  1.00  0.00     0.050 A 
ATOM     33  C   UNL     1       8.092   0.111   0.516  1.00  0.00     0.026 A 
ATOM     34  N   UNL     1       6.751  -0.741  -1.311  1.00  0.00    -0.259 NA
ATOM     35  C   UNL     1       8.748   0.983  -0.354  1.00  0.00     0.024 A 
ATOM     36  C   UNL     1       7.411   0.116  -2.131  1.00  0.00     0.131 A 
ATOM     37  C   UNL     1       8.403   0.986  -1.701  1.00  0.00     0.059 A 
ATOM     38  Cl  UNL     1       9.180   2.047  -2.803  1.00  0.00    -0.083 Cl
ENDBRANCH  31  32
ENDBRANCH  28  31
ENDBRANCH  24  27
ENDBRANCH   1  21
TORSDOF 9
