REMARK SMILES Cn1c(=O)c2c(ncn2CCCNCC(O)c2cc(O)cc(O)c2)n(C)c1=O
REMARK SMILES IDX 13 1 12 3 11 4 10 5 9 6 1 7 2 8 3 9 27 10 4 11 5 12 25 13
REMARK SMILES IDX 28 14 6 15 26 16 7 17 8 18 14 19 15 20 16 21 17 23 18 24
REMARK SMILES IDX 24 25 19 26 22 27 21 28 20 29 23 31
REMARK H PARENT 13 2 16 22 20 30 23 32
REMARK Flexibility Score: inf
ROOT
ATOM      1  N   UNL     1       1.420   0.131   0.894  1.00  0.00    -0.314 NA
ATOM      2  H   UNL     1       1.657  -0.587   1.584  1.00  0.00     0.122 HD
ENDROOT
BRANCH   1   3
ATOM      3  C   UNL     1      -0.014   0.420   0.920  1.00  0.00     0.083 C 
BRANCH   3   4
ATOM      4  C   UNL     1      -0.592   0.443   2.338  1.00  0.00     0.037 C 
BRANCH   4   5
ATOM      5  C   UNL     1      -2.091   0.750   2.366  1.00  0.00     0.125 C 
BRANCH   5   6
ATOM      6  N   UNL     1      -2.917  -0.294   1.794  1.00  0.00    -0.325 N 
ATOM      7  C   UNL     1      -4.302   0.986  -2.801  1.00  0.00     0.159 C 
ATOM      8  N   UNL     1      -4.249   0.145  -1.621  1.00  0.00    -0.261 N 
ATOM      9  C   UNL     1      -3.472   0.574  -0.541  1.00  0.00     0.282 C 
ATOM     10  C   UNL     1      -4.959  -1.070  -1.690  1.00  0.00     0.332 C 
ATOM     11  O   UNL     1      -2.819   1.613  -0.533  1.00  0.00    -0.267 OA
ATOM     12  C   UNL     1      -3.502  -0.328   0.559  1.00  0.00     0.152 A 
ATOM     13  N   UNL     1      -4.919  -1.896  -0.567  1.00  0.00    -0.279 N 
ATOM     14  O   UNL     1      -5.586  -1.381  -2.706  1.00  0.00    -0.247 OA
ATOM     15  C   UNL     1      -4.195  -1.502   0.532  1.00  0.00     0.167 A 
ATOM     16  C   UNL     1      -5.631  -3.160  -0.553  1.00  0.00     0.157 C 
ATOM     17  N   UNL     1      -4.069  -2.197   1.696  1.00  0.00    -0.218 NA
ATOM     18  C   UNL     1      -3.295  -1.441   2.446  1.00  0.00     0.202 A 
ENDBRANCH   5   6
ENDBRANCH   4   5
ENDBRANCH   3   4
ENDBRANCH   1   3
BRANCH   1  19
ATOM     19  C   UNL     1       2.249   1.319   1.175  1.00  0.00     0.117 C 
BRANCH  19  20
ATOM     20  C   UNL     1       3.766   0.992   1.242  1.00  0.00     0.158 C 
BRANCH  20  21
ATOM     21  O   UNL     1       3.955  -0.143   2.100  1.00  0.00    -0.387 OA
ATOM     22  H   UNL     1       4.178  -0.895   1.520  1.00  0.00     0.211 HD
ENDBRANCH  20  21
BRANCH  20  23
ATOM     23  C   UNL     1       4.499   0.760  -0.067  1.00  0.00    -0.011 A 
ATOM     24  C   UNL     1       3.852   0.394  -1.257  1.00  0.00     0.052 A 
ATOM     25  C   UNL     1       5.903   0.886  -0.081  1.00  0.00     0.052 A 
ATOM     26  C   UNL     1       4.591   0.180  -2.422  1.00  0.00     0.119 A 
ATOM     27  C   UNL     1       6.622   0.672  -1.256  1.00  0.00     0.119 A 
ATOM     28  C   UNL     1       5.972   0.321  -2.431  1.00  0.00     0.092 A 
BRANCH  26  29
ATOM     29  O   UNL     1       3.976  -0.176  -3.589  1.00  0.00    -0.508 OA
ATOM     30  H   UNL     1       3.025  -0.287  -3.419  1.00  0.00     0.293 HD
ENDBRANCH  26  29
BRANCH  27  31
ATOM     31  O   UNL     1       7.979   0.799  -1.291  1.00  0.00    -0.508 OA
ATOM     32  H   UNL     1       8.294   1.051  -0.408  1.00  0.00     0.293 HD
ENDBRANCH  27  31
ENDBRANCH  20  23
ENDBRANCH  19  20
ENDBRANCH   1  19
TORSDOF 10
