REMARK SMILES CCCN1CC(NS(=O)(=O)N(CC)CC)CC2Cc3c(O)cccc3CC21
REMARK SMILES IDX 7 1 6 3 4 4 5 5 27 6 17 7 26 8 16 9 18 10 25 11 19 12 24 13
REMARK SMILES IDX 20 14 23 15 22 16 3 17 2 18 1 19 21 20 8 22 9 23 10 24 11 25
REMARK SMILES IDX 12 26 13 27 14 28 15 29
REMARK H PARENT 7 2 21 21
REMARK Flexibility Score: inf
ROOT
ATOM      1  N   UNL     1       1.965  -0.970  -0.620  1.00  0.00    -0.198 NA
ATOM      2  H   UNL     1       1.481  -1.754  -1.062  1.00  0.00     0.142 HD
ENDROOT
BRANCH   1   3
ATOM      3  C   UNL     1       1.108  -0.202   0.317  1.00  0.00     0.085 C 
ATOM      4  N   UNL     1      -0.855   1.315   0.212  1.00  0.00    -0.298 NA
ATOM      5  C   UNL     1       0.330   0.856  -0.511  1.00  0.00     0.104 C 
ATOM      6  C   UNL     1      -1.855   0.240   0.426  1.00  0.00     0.064 C 
ATOM      7  C   UNL     1      -1.210  -1.172   0.403  1.00  0.00     0.013 C 
ATOM      8  C   UNL     1      -3.057   0.188  -0.549  1.00  0.00     0.055 C 
ATOM      9  C   UNL     1       0.164  -1.158   1.071  1.00  0.00     0.027 C 
ATOM     10  C   UNL     1      -2.168  -2.176   1.052  1.00  0.00     0.045 C 
ATOM     11  C   UNL     1      -3.974  -0.992  -0.295  1.00  0.00    -0.040 A 
ATOM     12  C   UNL     1      -3.551  -2.115   0.444  1.00  0.00    -0.003 A 
ATOM     13  C   UNL     1      -5.265  -0.973  -0.847  1.00  0.00     0.004 A 
ATOM     14  C   UNL     1      -4.453  -3.169   0.648  1.00  0.00     0.119 A 
ATOM     15  C   UNL     1      -6.141  -2.040  -0.645  1.00  0.00     0.004 A 
ATOM     16  C   UNL     1      -5.737  -3.139   0.108  1.00  0.00     0.046 A 
BRANCH   4  17
ATOM     17  C   UNL     1      -1.362   2.603  -0.262  1.00  0.00     0.084 C 
BRANCH  17  18
ATOM     18  C   UNL     1      -2.249   3.325   0.763  1.00  0.00     0.012 C 
ATOM     19  C   UNL     1      -1.516   3.649   2.059  1.00  0.00     0.005 C 
ENDBRANCH  17  18
ENDBRANCH   4  17
BRANCH  14  20
ATOM     20  O   UNL     1      -4.050  -4.242   1.394  1.00  0.00    -0.508 OA
ATOM     21  H   UNL     1      -4.783  -4.876   1.450  1.00  0.00     0.293 HD
ENDBRANCH  14  20
ENDBRANCH   1   3
BRANCH   1  22
ATOM     22  S   UNL     1       3.460  -1.507  -0.092  1.00  0.00     0.279 S 
ATOM     23  O   UNL     1       3.844  -2.535  -1.029  1.00  0.00    -0.195 OA
ATOM     24  O   UNL     1       3.382  -1.764   1.324  1.00  0.00    -0.195 OA
BRANCH  22  25
ATOM     25  N   UNL     1       4.404  -0.145  -0.377  1.00  0.00    -0.190 NA
BRANCH  25  26
ATOM     26  C   UNL     1       4.322   0.982   0.574  1.00  0.00     0.100 C 
ATOM     27  C   UNL     1       5.689   1.618   0.771  1.00  0.00     0.022 C 
ENDBRANCH  25  26
BRANCH  25  28
ATOM     28  C   UNL     1       4.611   0.234  -1.795  1.00  0.00     0.100 C 
ATOM     29  C   UNL     1       5.978  -0.238  -2.259  1.00  0.00     0.022 C 
ENDBRANCH  25  28
ENDBRANCH  22  25
ENDBRANCH   1  22
TORSDOF 8
