REMARK SMILES Nc1ccc(S(=O)(=O)Nc2ccccn2)cc1
REMARK SMILES IDX 6 1 7 2 8 3 5 4 2 5 3 6 17 7 4 8 16 9 1 10 9 13 10 15 11 16
REMARK SMILES IDX 15 17 12 18 14 19 13 20
REMARK H PARENT 1 11 1 12 9 14
REMARK Flexibility Score: inf
ROOT
ATOM      1  S   UNL     1      -0.346  -1.830  -1.258  1.00  0.00     0.263 S 
ATOM      2  O   UNL     1       0.028  -3.233  -1.242  1.00  0.00    -0.201 OA
ATOM      3  O   UNL     1      -0.884  -1.242  -2.467  1.00  0.00    -0.201 OA
ENDROOT
BRANCH   1   4
ATOM      4  C   UNL     1       1.080  -0.919  -0.727  1.00  0.00     0.088 A 
ATOM      5  C   UNL     1       3.365   0.483   0.088  1.00  0.00     0.031 A 
ATOM      6  C   UNL     1       3.045  -0.751   0.665  1.00  0.00     0.027 A 
ATOM      7  C   UNL     1       2.575   0.961  -0.963  1.00  0.00     0.027 A 
ATOM      8  C   UNL     1       1.898  -1.447   0.274  1.00  0.00     0.024 A 
ATOM      9  C   UNL     1       1.425   0.274  -1.363  1.00  0.00     0.024 A 
BRANCH   5  10
ATOM     10  N   UNL     1       4.575   1.112   0.400  1.00  0.00    -0.399 N 
ATOM     11  H   UNL     1       4.914   0.910   1.335  1.00  0.00     0.156 HD
ATOM     12  H   UNL     1       4.586   2.106   0.192  1.00  0.00     0.156 HD
ENDBRANCH   5  10
ENDBRANCH   1   4
BRANCH   1  13
ATOM     13  N   UNL     1      -1.441  -1.660  -0.008  1.00  0.00    -0.263 N 
ATOM     14  H   UNL     1      -1.869  -2.540   0.258  1.00  0.00     0.182 HD
BRANCH  13  15
ATOM     15  C   UNL     1      -2.181  -0.470   0.106  1.00  0.00     0.139 A 
ATOM     16  C   UNL     1      -3.497  -0.525   0.539  1.00  0.00     0.048 A 
ATOM     17  N   UNL     1      -1.511   0.677  -0.082  1.00  0.00    -0.239 NA
ATOM     18  C   UNL     1      -4.182   0.673   0.729  1.00  0.00     0.005 A 
ATOM     19  C   UNL     1      -2.197   1.825   0.105  1.00  0.00     0.113 A 
ATOM     20  C   UNL     1      -3.522   1.875   0.504  1.00  0.00     0.020 A 
ENDBRANCH  13  15
ENDBRANCH   1  13
TORSDOF 4
