REMARK SMILES C[C@@H](Oc1cc(-c2cnn(C3CCNCC3)c2)cnc1N)c1c(Cl)ccc(F)c1Cl
REMARK SMILES IDX 4 1 5 2 20 3 19 4 18 5 6 6 3 7 2 8 1 9 22 10 24 11 23 12
REMARK SMILES IDX 25 13 29 14 26 15 27 16 30 17 28 18 21 19 7 22 8 23 17 24
REMARK SMILES IDX 9 25 10 26 11 27 12 28 16 29 13 30 15 31 14 32
REMARK H PARENT 21 20 21 21 14 33
REMARK Flexibility Score: inf
ROOT
ATOM      1  C   UNL     1      21.527  85.138   6.508  1.00  0.00     0.162 A 
ATOM      2  C   UNL     1      21.744  84.762   5.164  1.00  0.00     0.061 A 
ATOM      3  C   UNL     1      22.666  85.220   7.324  1.00  0.00     0.166 A 
ATOM      4  N   UNL     1      23.923  84.975   6.878  1.00  0.00    -0.235 NA
ATOM      5  C   UNL     1      24.084  84.625   5.584  1.00  0.00     0.122 A 
ATOM      6  C   UNL     1      23.044  84.501   4.671  1.00  0.00     0.007 A 
ENDROOT
BRANCH   1   7
ATOM      7  O   UNL     1      20.342  85.442   7.151  1.00  0.00    -0.482 OA
BRANCH   7   8
ATOM      8  C   UNL     1      19.033  85.449   6.539  1.00  0.00     0.203 C 
ATOM      9  C   UNL     1      18.117  86.249   7.461  1.00  0.00     0.058 C 
BRANCH   8  10
ATOM     10  C   UNL     1      18.506  84.032   6.279  1.00  0.00     0.032 A 
ATOM     11  Cl  UNL     1      18.319  84.569   3.546  1.00  0.00    -0.084 Cl
ATOM     12  C   UNL     1      18.188  83.586   4.968  1.00  0.00     0.049 A 
ATOM     13  C   UNL     1      17.719  82.288   4.714  1.00  0.00     0.024 A 
ATOM     14  C   UNL     1      18.316  83.079   7.308  1.00  0.00     0.085 A 
ATOM     15  C   UNL     1      17.535  81.381   5.741  1.00  0.00     0.042 A 
ATOM     16  C   UNL     1      17.835  81.794   7.021  1.00  0.00     0.142 A 
ATOM     17  Cl  UNL     1      18.618  83.397   8.986  1.00  0.00    -0.081 Cl
ATOM     18  F   UNL     1      17.661  80.919   8.002  1.00  0.00    -0.205 F 
ENDBRANCH   8  10
ENDBRANCH   7   8
ENDBRANCH   1   7
BRANCH   3  19
ATOM     19  N   UNL     1      22.541  85.576   8.672  1.00  0.00    -0.381 N 
ATOM     20  H   UNL     1      23.378  85.635   9.269  1.00  0.00     0.158 HD
ATOM     21  H   UNL     1      21.612  85.778   9.067  1.00  0.00     0.158 HD
ENDBRANCH   3  19
BRANCH   6  22
ATOM     22  C   UNL     1      23.335  84.087   3.302  1.00  0.00     0.021 A 
ATOM     23  C   UNL     1      22.520  83.628   2.237  1.00  0.00     0.143 A 
ATOM     24  C   UNL     1      24.606  84.007   2.765  1.00  0.00     0.117 A 
ATOM     25  N   UNL     1      23.213  83.319   1.137  1.00  0.00    -0.181 NA
ATOM     26  N   UNL     1      24.497  83.561   1.484  1.00  0.00    -0.269 N 
BRANCH  26  27
ATOM     27  C   UNL     1      25.595  83.351   0.536  1.00  0.00     0.110 C 
ATOM     28  C   UNL     1      26.030  81.893   0.292  1.00  0.00     0.042 C 
ATOM     29  C   UNL     1      25.500  84.191  -0.751  1.00  0.00     0.042 C 
ATOM     30  C   UNL     1      25.528  81.215  -0.984  1.00  0.00     0.083 C 
ATOM     31  C   UNL     1      24.840  83.475  -1.928  1.00  0.00     0.083 C 
ATOM     32  N   UNL     1      25.502  82.151  -2.159  1.00  0.00    -0.317 NA
ATOM     33  H   UNL     1      25.004  81.679  -2.927  1.00  0.00     0.122 HD
ENDBRANCH  26  27
ENDBRANCH   6  22
TORSDOF 6
