REMARK SMILES CN1[C@@H]2C[C@@H](OC(=O)[C@H](CO)c3ccccc3)C[C@H]1[C@@H]1O[C@@H]12
REMARK SMILES IDX 7 1 8 2 6 3 5 4 1 5 2 6 3 7 19 8 4 9 22 10 18 11 20 12 21 13
REMARK SMILES IDX 9 14 10 15 11 16 12 18 13 19 17 20 14 21 16 22 15 23
REMARK H PARENT 11 17
REMARK Flexibility Score: inf
ROOT
ATOM      1  C   UNL     1       1.090  -1.921   0.199  1.00  0.00     0.316 C 
ATOM      2  O   UNL     1       1.156  -2.830  -0.621  1.00  0.00    -0.251 OA
ENDROOT
BRANCH   1   3
ATOM      3  O   UNL     1      -0.045  -1.227   0.501  1.00  0.00    -0.462 OA
BRANCH   3   4
ATOM      4  C   UNL     1      -1.256  -1.635  -0.184  1.00  0.00     0.179 C 
ATOM      5  C   UNL     1      -4.241   1.184  -1.415  1.00  0.00     0.106 C 
ATOM      6  N   UNL     1      -3.254   0.187  -1.015  1.00  0.00    -0.295 NA
ATOM      7  C   UNL     1      -1.927   0.388  -1.640  1.00  0.00     0.092 C 
ATOM      8  C   UNL     1      -2.946   0.210   0.433  1.00  0.00     0.092 C 
ATOM      9  C   UNL     1      -1.289  -1.016  -1.607  1.00  0.00     0.067 C 
ATOM     10  C   UNL     1      -1.177   1.324  -0.725  1.00  0.00     0.166 C 
ATOM     11  C   UNL     1      -2.445  -1.220   0.719  1.00  0.00     0.067 C 
ATOM     12  C   UNL     1      -1.824   1.206   0.601  1.00  0.00     0.166 C 
ATOM     13  O   UNL     1      -1.881   2.430  -0.142  1.00  0.00    -0.366 OA
ENDBRANCH   3   4
ENDBRANCH   1   3
BRANCH   1  14
ATOM     14  C   UNL     1       2.292  -1.392   0.965  1.00  0.00     0.155 C 
BRANCH  14  15
ATOM     15  C   UNL     1       2.074  -1.566   2.473  1.00  0.00     0.176 C 
BRANCH  15  16
ATOM     16  O   UNL     1       2.150  -2.939   2.856  1.00  0.00    -0.395 OA
ATOM     17  H   UNL     1       3.064  -3.242   2.715  1.00  0.00     0.210 HD
ENDBRANCH  15  16
ENDBRANCH  14  15
BRANCH  14  18
ATOM     18  C   UNL     1       2.638   0.024   0.525  1.00  0.00    -0.032 A 
ATOM     19  C   UNL     1       3.410   0.205  -0.636  1.00  0.00     0.005 A 
ATOM     20  C   UNL     1       2.176   1.162   1.204  1.00  0.00     0.005 A 
ATOM     21  C   UNL     1       3.723   1.486  -1.093  1.00  0.00     0.000 A 
ATOM     22  C   UNL     1       2.491   2.442   0.744  1.00  0.00     0.000 A 
ATOM     23  C   UNL     1       3.265   2.604  -0.402  1.00  0.00     0.000 A 
ENDBRANCH  14  18
ENDBRANCH   1  14
TORSDOF 6
