REMARK SMILES Cc1cc(F)c(C(=O)Nc2cccc(-c3nncn3C(C)C)n2)cc1-n1cnc(C2CC2)c1
REMARK SMILES IDX 9 1 7 2 8 3 10 5 14 6 13 7 23 8 12 9 11 10 15 11 19 12 18 13
REMARK SMILES IDX 17 14 16 15 20 16 21 17 22 18 6 19 24 20 4 21 25 22 3 23
REMARK SMILES IDX 5 24 2 25 1 26 26 27 27 28 33 29 28 30 29 31 30 32 31 33
REMARK SMILES IDX 32 34
REMARK H PARENT 9 4
REMARK Flexibility Score: inf
ROOT
ATOM      1  N   UNL     1       1.516  -1.725  -1.818  1.00  0.00    -0.306 N 
ATOM      2  C   UNL     1       0.804  -1.048  -0.851  1.00  0.00     0.259 C 
ATOM      3  O   UNL     1       1.220  -0.131  -0.150  1.00  0.00    -0.269 OA
ATOM      4  H   UNL     1       1.039  -2.445  -2.345  1.00  0.00     0.171 HD
ENDROOT
BRANCH   1   5
ATOM      5  C   UNL     1       2.859  -1.505  -2.161  1.00  0.00     0.133 A 
ATOM      6  C   UNL     1       4.895  -0.428  -1.876  1.00  0.00     0.110 A 
ATOM      7  C   UNL     1       5.468  -1.151  -2.919  1.00  0.00     0.032 A 
ATOM      8  N   UNL     1       3.608  -0.604  -1.499  1.00  0.00    -0.227 NA
ATOM      9  C   UNL     1       4.693  -2.083  -3.596  1.00  0.00     0.006 A 
ATOM     10  C   UNL     1       3.369  -2.265  -3.211  1.00  0.00     0.047 A 
BRANCH   6  11
ATOM     11  C   UNL     1       5.701   0.544  -1.127  1.00  0.00     0.182 A 
ATOM     12  N   UNL     1       5.306   1.390  -0.106  1.00  0.00    -0.310 N 
ATOM     13  C   UNL     1       6.441   2.032   0.306  1.00  0.00     0.226 A 
ATOM     14  N   UNL     1       7.460   1.665  -0.430  1.00  0.00    -0.139 NA
ATOM     15  N   UNL     1       6.998   0.742  -1.328  1.00  0.00    -0.129 NA
BRANCH  12  16
ATOM     16  C   UNL     1       3.982   1.571   0.475  1.00  0.00     0.084 C 
ATOM     17  C   UNL     1       3.702   3.012   0.923  1.00  0.00     0.031 C 
ATOM     18  C   UNL     1       3.767   0.604   1.639  1.00  0.00     0.031 C 
ENDBRANCH  12  16
ENDBRANCH   6  11
ENDBRANCH   1   5
BRANCH   2  19
ATOM     19  C   UNL     1      -0.619  -1.470  -0.654  1.00  0.00     0.078 A 
ATOM     20  C   UNL     1      -1.413  -0.746   0.253  1.00  0.00     0.043 A 
ATOM     21  C   UNL     1      -1.199  -2.535  -1.331  1.00  0.00     0.136 A 
ATOM     22  C   UNL     1      -2.768  -1.073   0.484  1.00  0.00     0.050 A 
ATOM     23  C   UNL     1      -2.527  -2.891  -1.102  1.00  0.00     0.045 A 
ATOM     24  F   UNL     1      -0.500  -3.257  -2.221  1.00  0.00    -0.206 F 
ATOM     25  C   UNL     1      -3.327  -2.188  -0.179  1.00  0.00    -0.024 A 
ATOM     26  C   UNL     1      -4.715  -2.728   0.045  1.00  0.00     0.047 C 
BRANCH  22  27
ATOM     27  N   UNL     1      -3.505  -0.234   1.378  1.00  0.00    -0.306 N 
ATOM     28  C   UNL     1      -2.980   0.543   2.396  1.00  0.00     0.204 A 
ATOM     29  C   UNL     1      -4.857   0.028   1.388  1.00  0.00     0.116 A 
ATOM     30  N   UNL     1      -3.895   1.238   3.034  1.00  0.00    -0.241 NA
ATOM     31  C   UNL     1      -5.060   0.928   2.405  1.00  0.00     0.062 A 
BRANCH  31  32
ATOM     32  C   UNL     1      -6.425   1.543   2.789  1.00  0.00     0.040 C 
ATOM     33  C   UNL     1      -7.207   2.324   1.765  1.00  0.00     0.011 C 
ATOM     34  C   UNL     1      -6.530   3.044   2.895  1.00  0.00     0.011 C 
ENDBRANCH  31  32
ENDBRANCH  22  27
ENDBRANCH   2  19
TORSDOF 6
