REMARK SMILES CCC(=O)c1ccc2c(c1)N(CCCN1CCN(CCO)CC1)c1ccccc1S2
REMARK SMILES IDX 13 1 12 2 11 3 5 4 6 5 10 6 7 7 9 8 8 9 30 10 24 11 29 12
REMARK SMILES IDX 25 13 28 14 26 15 27 16 3 17 4 18 2 19 1 20 14 21 15 22
REMARK SMILES IDX 16 23 23 24 17 25 22 26 18 27 19 28 20 29 21 30
REMARK H PARENT 21 31
REMARK Flexibility Score: inf
ROOT
ATOM      1  C   UNL     1      -0.102  -1.626  -0.543  1.00  0.00     0.037 C 
ENDROOT
BRANCH   1   2
ATOM      2  C   UNL     1      -1.128  -1.720   0.598  1.00  0.00     0.124 C 
BRANCH   2   3
ATOM      3  N   UNL     1      -2.514  -1.826   0.075  1.00  0.00    -0.340 N 
ATOM      4  C   UNL     1      -3.345   1.864  -0.144  1.00  0.00     0.020 A 
ATOM      5  C   UNL     1      -4.727   1.818  -0.304  1.00  0.00     0.013 A 
ATOM      6  C   UNL     1      -2.629   0.661  -0.031  1.00  0.00     0.039 A 
ATOM      7  C   UNL     1      -5.372   0.588  -0.348  1.00  0.00     0.018 A 
ATOM      8  C   UNL     1      -3.255  -0.612  -0.053  1.00  0.00     0.056 A 
ATOM      9  C   UNL     1      -4.653  -0.617  -0.229  1.00  0.00     0.036 A 
ATOM     10  S   UNL     1      -5.638  -2.093  -0.291  1.00  0.00    -0.086 SA
ATOM     11  C   UNL     1      -3.031  -3.141  -0.121  1.00  0.00     0.055 A 
ATOM     12  C   UNL     1      -4.408  -3.374  -0.320  1.00  0.00     0.036 A 
ATOM     13  C   UNL     1      -2.197  -4.284  -0.157  1.00  0.00     0.027 A 
ATOM     14  C   UNL     1      -4.904  -4.679  -0.533  1.00  0.00     0.017 A 
ATOM     15  C   UNL     1      -2.690  -5.578  -0.357  1.00  0.00     0.002 A 
ATOM     16  C   UNL     1      -4.049  -5.777  -0.549  1.00  0.00     0.001 A 
BRANCH   4  17
ATOM     17  C   UNL     1      -2.685   3.207  -0.095  1.00  0.00     0.162 C 
ATOM     18  O   UNL     1      -3.387   4.220  -0.106  1.00  0.00    -0.294 OA
BRANCH  17  19
ATOM     19  C   UNL     1      -1.169   3.276  -0.033  1.00  0.00     0.077 C 
ATOM     20  C   UNL     1      -0.648   4.704  -0.076  1.00  0.00     0.012 C 
ENDBRANCH  17  19
ENDBRANCH   4  17
ENDBRANCH   2   3
ENDBRANCH   1   2
BRANCH   1  21
ATOM     21  C   UNL     1       1.336  -1.547  -0.010  1.00  0.00     0.086 C 
BRANCH  21  22
ATOM     22  N   UNL     1       1.604  -0.295   0.706  1.00  0.00    -0.301 NA
ATOM     23  C   UNL     1       1.835   0.847  -0.211  1.00  0.00     0.100 C 
ATOM     24  C   UNL     1       2.748  -0.456   1.632  1.00  0.00     0.100 C 
ATOM     25  C   UNL     1       3.324   1.218  -0.411  1.00  0.00     0.100 C 
ATOM     26  C   UNL     1       3.422   0.885   2.002  1.00  0.00     0.100 C 
ATOM     27  N   UNL     1       3.997   1.610   0.845  1.00  0.00    -0.299 NA
BRANCH  27  28
ATOM     28  C   UNL     1       5.458   1.420   0.765  1.00  0.00     0.112 C 
BRANCH  28  29
ATOM     29  C   UNL     1       6.147   2.307  -0.283  1.00  0.00     0.171 C 
BRANCH  29  30
ATOM     30  O   UNL     1       7.551   2.067  -0.262  1.00  0.00    -0.395 OA
ATOM     31  H   UNL     1       7.954   2.701  -0.882  1.00  0.00     0.210 HD
ENDBRANCH  29  30
ENDBRANCH  28  29
ENDBRANCH  27  28
ENDBRANCH  21  22
ENDBRANCH   1  21
TORSDOF 9
