REMARK SMILES C#Cc1cccc(Nc2ncnc3cc(OCCOC)c(OCCOC)cc23)c1
REMARK SMILES IDX 9 1 10 2 11 3 12 4 13 5 14 6 15 7 21 8 27 9 28 10 8 11 7 13
REMARK SMILES IDX 3 14 4 15 29 16 5 17 6 18 2 19 1 20 22 21 23 22 24 23 25 24
REMARK SMILES IDX 26 25 16 26 17 27 18 28 19 29 20 30
REMARK H PARENT 8 12
REMARK Flexibility Score: inf
ROOT
ATOM      1  C   UNL     1       2.063  -0.567  -1.100  1.00  0.00     0.141 A 
ATOM      2  N   UNL     1       2.824  -1.671  -1.223  1.00  0.00    -0.219 NA
ATOM      3  C   UNL     1       2.191  -2.846  -1.212  1.00  0.00     0.224 A 
ATOM      4  N   UNL     1       0.872  -3.029  -1.093  1.00  0.00    -0.236 NA
ATOM      5  C   UNL     1       0.120  -1.933  -0.957  1.00  0.00     0.080 A 
ATOM      6  C   UNL     1      -1.258  -2.090  -0.821  1.00  0.00     0.079 A 
ATOM      7  C   UNL     1      -2.118  -1.004  -0.656  1.00  0.00     0.163 A 
ATOM      8  C   UNL     1      -1.565   0.273  -0.600  1.00  0.00     0.162 A 
ATOM      9  C   UNL     1      -0.196   0.464  -0.762  1.00  0.00     0.064 A 
ATOM     10  C   UNL     1       0.664  -0.644  -0.943  1.00  0.00     0.047 A 
ENDROOT
BRANCH   1  11
ATOM     11  N   UNL     1       2.670   0.716  -1.130  1.00  0.00    -0.340 N 
ATOM     12  H   UNL     1       2.210   1.271  -1.839  1.00  0.00     0.168 HD
BRANCH  11  13
ATOM     13  C   UNL     1       4.038   1.057  -1.027  1.00  0.00     0.041 A 
ATOM     14  C   UNL     1       6.298   0.689  -0.188  1.00  0.00     0.026 A 
ATOM     15  C   UNL     1       6.712   1.907  -0.732  1.00  0.00     0.017 A 
ATOM     16  C   UNL     1       4.967   0.274  -0.326  1.00  0.00     0.043 A 
ATOM     17  C   UNL     1       5.796   2.710  -1.406  1.00  0.00     0.003 A 
ATOM     18  C   UNL     1       4.468   2.293  -1.536  1.00  0.00     0.026 A 
BRANCH  14  19
ATOM     19  C   UNL     1       7.237  -0.136   0.509  1.00  0.00    -0.070 C 
ATOM     20  C   UNL     1       8.021  -0.818   1.111  1.00  0.00     0.010 C 
ENDBRANCH  14  19
ENDBRANCH  11  13
ENDBRANCH   1  11
BRANCH   8  21
ATOM     21  O   UNL     1      -2.345   1.386  -0.435  1.00  0.00    -0.487 OA
BRANCH  21  22
ATOM     22  C   UNL     1      -2.594   1.618   0.966  1.00  0.00     0.258 C 
BRANCH  22  23
ATOM     23  C   UNL     1      -2.375   3.109   1.242  1.00  0.00     0.201 C 
BRANCH  23  24
ATOM     24  O   UNL     1      -2.493   3.459   2.613  1.00  0.00    -0.381 OA
ATOM     25  C   UNL     1      -1.300   3.192   3.342  1.00  0.00     0.195 C 
ENDBRANCH  23  24
ENDBRANCH  22  23
ENDBRANCH  21  22
ENDBRANCH   8  21
BRANCH   7  26
ATOM     26  O   UNL     1      -3.474  -1.086  -0.525  1.00  0.00    -0.487 OA
BRANCH  26  27
ATOM     27  C   UNL     1      -4.093  -2.332  -0.856  1.00  0.00     0.258 C 
BRANCH  27  28
ATOM     28  C   UNL     1      -5.610  -2.135  -0.916  1.00  0.00     0.201 C 
BRANCH  28  29
ATOM     29  O   UNL     1      -6.186  -1.805   0.347  1.00  0.00    -0.381 OA
ATOM     30  C   UNL     1      -6.295  -2.908   1.232  1.00  0.00     0.195 C 
ENDBRANCH  28  29
ENDBRANCH  27  28
ENDBRANCH  26  27
ENDBRANCH   7  26
TORSDOF 11
