REMARK SMILES CC(C)Nc1cccnc1N1CCN(C(=O)c2cc3cc(NS(C)(=O)=O)ccc3[nH]2)CC1
REMARK SMILES IDX 11 1 12 2 13 3 14 4 15 5 16 6 31 7 32 8 10 9 5 10 6 11 7 12
REMARK SMILES IDX 9 13 8 14 4 15 2 17 1 18 3 19 17 20 18 21 30 22 19 23 29 24
REMARK SMILES IDX 20 26 28 27 21 28 27 29 22 30 23 32 24 33 25 34 26 35
REMARK H PARENT 4 16 30 25 22 31
REMARK Flexibility Score: inf
ROOT
ATOM      1  N   UNL     1      -2.745   0.999  -0.102  1.00  0.00    -0.351 N 
ATOM      2  C   UNL     1      -1.661   1.584  -0.912  1.00  0.00     0.139 C 
ATOM      3  C   UNL     1      -0.305   1.084  -0.381  1.00  0.00     0.141 C 
ATOM      4  N   UNL     1      -0.115   1.359   1.054  1.00  0.00    -0.334 N 
ATOM      5  C   UNL     1       1.138   1.538   1.638  1.00  0.00     0.270 C 
ATOM      6  O   UNL     1       1.276   2.192   2.668  1.00  0.00    -0.267 OA
ATOM      7  C   UNL     1      -1.282   1.913   1.749  1.00  0.00     0.141 C 
ATOM      8  C   UNL     1      -2.600   1.211   1.365  1.00  0.00     0.139 C 
ENDROOT
BRANCH   1   9
ATOM      9  C   UNL     1      -4.031   1.426  -0.538  1.00  0.00     0.152 A 
ATOM     10  C   UNL     1      -5.149   0.585  -0.266  1.00  0.00     0.078 A 
ATOM     11  C   UNL     1      -6.414   1.058  -0.621  1.00  0.00     0.031 A 
ATOM     12  C   UNL     1      -6.538   2.272  -1.287  1.00  0.00     0.022 A 
ATOM     13  N   UNL     1      -4.149   2.596  -1.207  1.00  0.00    -0.237 NA
ATOM     14  C   UNL     1      -5.390   2.990  -1.563  1.00  0.00     0.113 A 
BRANCH  10  15
ATOM     15  N   UNL     1      -4.956  -0.639   0.416  1.00  0.00    -0.380 N 
ATOM     16  H   UNL     1      -3.949  -0.832   0.365  1.00  0.00     0.160 HD
BRANCH  15  17
ATOM     17  C   UNL     1      -5.750  -1.807   0.023  1.00  0.00     0.073 C 
ATOM     18  C   UNL     1      -5.514  -2.906   1.062  1.00  0.00     0.030 C 
ATOM     19  C   UNL     1      -5.337  -2.302  -1.365  1.00  0.00     0.030 C 
ENDBRANCH  15  17
ENDBRANCH  10  15
ENDBRANCH   1   9
BRANCH   5  20
ATOM     20  C   UNL     1       2.268   0.902   0.992  1.00  0.00     0.105 A 
ATOM     21  C   UNL     1       3.552   1.393   0.828  1.00  0.00     0.042 A 
ATOM     22  N   UNL     1       2.276  -0.381   0.492  1.00  0.00    -0.351 N 
ATOM     23  C   UNL     1       4.325   0.415   0.146  1.00  0.00     0.002 A 
ATOM     24  C   UNL     1       3.499  -0.687  -0.059  1.00  0.00     0.046 A 
ATOM     25  H   UNL     1       1.490  -1.014   0.534  1.00  0.00     0.167 HD
ATOM     26  C   UNL     1       5.655   0.369  -0.322  1.00  0.00     0.037 A 
ATOM     27  C   UNL     1       3.931  -1.844  -0.712  1.00  0.00     0.029 A 
ATOM     28  C   UNL     1       6.116  -0.784  -0.965  1.00  0.00     0.049 A 
ATOM     29  C   UNL     1       5.254  -1.866  -1.170  1.00  0.00     0.029 A 
BRANCH  28  30
ATOM     30  N   UNL     1       7.439  -0.883  -1.489  1.00  0.00    -0.284 N 
ATOM     31  H   UNL     1       7.632  -1.642  -2.142  1.00  0.00     0.180 HD
BRANCH  30  32
ATOM     32  S   UNL     1       8.782  -0.487  -0.566  1.00  0.00     0.229 S 
ATOM     33  C   UNL     1       8.619  -1.568   0.839  1.00  0.00     0.183 C 
ATOM     34  O   UNL     1       9.922  -0.946  -1.333  1.00  0.00    -0.207 OA
ATOM     35  O   UNL     1       8.692   0.882  -0.112  1.00  0.00    -0.207 OA
ENDBRANCH  30  32
ENDBRANCH  28  30
ENDBRANCH   5  20
TORSDOF 6
