REMARK SMILES CCN(CC)C(=O)N[C@H]1C=C2c3cccc4[nH]cc(c34)C[C@H]2N(C)C1
REMARK SMILES IDX 3 1 6 2 7 3 8 4 2 6 1 7 4 8 5 9 9 10 10 11 25 12 11 13 23 14
REMARK SMILES IDX 12 15 22 16 24 17 13 18 20 19 21 20 14 21 16 22 19 23 15 24
REMARK SMILES IDX 17 25 18 26
REMARK H PARENT 8 5 17 27
REMARK Flexibility Score: inf
ROOT
ATOM      1  N   UNL     1      -3.998  -0.212  -0.246  1.00  0.00    -0.325 N 
ATOM      2  C   UNL     1      -3.019   0.377   0.539  1.00  0.00     0.317 C 
ATOM      3  O   UNL     1      -3.263   1.249   1.369  1.00  0.00    -0.249 OA
ATOM      4  N   UNL     1      -1.748  -0.098   0.352  1.00  0.00    -0.330 N 
ATOM      5  H   UNL     1      -1.521  -0.400  -0.580  1.00  0.00     0.166 HD
ENDROOT
BRANCH   1   6
ATOM      6  C   UNL     1      -5.379   0.230  -0.051  1.00  0.00     0.118 C 
ATOM      7  C   UNL     1      -5.744   1.355  -1.007  1.00  0.00     0.027 C 
ENDBRANCH   1   6
BRANCH   1   8
ATOM      8  C   UNL     1      -3.793  -1.321  -1.182  1.00  0.00     0.118 C 
ATOM      9  C   UNL     1      -3.761  -2.664  -0.471  1.00  0.00     0.027 C 
ENDBRANCH   1   8
BRANCH   4  10
ATOM     10  C   UNL     1      -0.638   0.474   1.096  1.00  0.00     0.121 C 
ATOM     11  C   UNL     1       0.498  -0.505   0.982  1.00  0.00     0.005 C 
ATOM     12  C   UNL     1      -0.241   1.874   0.543  1.00  0.00     0.114 C 
ATOM     13  C   UNL     1       1.755  -0.098   0.729  1.00  0.00    -0.024 C 
ATOM     14  N   UNL     1       1.085   2.368   0.963  1.00  0.00    -0.297 NA
ATOM     15  C   UNL     1       2.833  -1.060   0.415  1.00  0.00    -0.011 A 
ATOM     16  C   UNL     1       2.156   1.398   0.618  1.00  0.00     0.091 C 
ATOM     17  C   UNL     1       1.092   2.677   2.395  1.00  0.00     0.106 C 
ATOM     18  C   UNL     1       3.012  -2.367   0.873  1.00  0.00     0.009 A 
ATOM     19  C   UNL     1       3.768  -0.556  -0.505  1.00  0.00     0.010 A 
ATOM     20  C   UNL     1       2.782   1.740  -0.785  1.00  0.00     0.061 C 
ATOM     21  C   UNL     1       4.099  -3.130   0.421  1.00  0.00     0.003 A 
ATOM     22  C   UNL     1       4.835  -1.315  -0.950  1.00  0.00     0.046 A 
ATOM     23  C   UNL     1       3.825   0.720  -1.120  1.00  0.00    -0.020 A 
ATOM     24  C   UNL     1       5.033  -2.624  -0.501  1.00  0.00     0.027 A 
ATOM     25  N   UNL     1       5.531  -0.516  -1.832  1.00  0.00    -0.361 N 
ATOM     26  C   UNL     1       4.927   0.720  -1.943  1.00  0.00     0.087 A 
ATOM     27  H   UNL     1       6.367  -0.798  -2.323  1.00  0.00     0.166 HD
ENDBRANCH   4  10
TORSDOF 3
