REMARK SMILES C[C@@H](O)[C@H]1C(=O)N2C(C(=O)O)=C(S[C@@H]3CN[C@H](C(=O)Nc4cccc(C(=O)O)c4)C3)[C@H](C)[C@H]12
REMARK SMILES IDX 14 1 15 2 16 3 17 4 30 5 13 7 12 8 4 9 5 10 33 11 6 12 7 13
REMARK SMILES IDX 31 14 8 15 32 16 2 17 1 18 3 19 9 21 10 22 11 23 18 25 19 26
REMARK SMILES IDX 20 27 21 29 22 30 29 31 23 32 25 33 24 34 26 35 27 36 28 37
REMARK H PARENT 16 6 3 20 11 24 20 28 28 38
REMARK Flexibility Score: inf
ROOT
ATOM      1  C   UNL     1      -0.075   0.059  -0.177  1.00  0.00     0.067 C 
ATOM      2  C   UNL     1       0.069   1.420   0.515  1.00  0.00     0.096 C 
ATOM      3  N   UNL     1       1.461   1.507   0.937  1.00  0.00    -0.305 NA
ATOM      4  C   UNL     1       2.025   0.140   0.915  1.00  0.00     0.145 C 
ATOM      5  C   UNL     1       1.365  -0.427  -0.333  1.00  0.00     0.045 C 
ATOM      6  H   UNL     1       1.590   1.944   1.849  1.00  0.00     0.123 HD
ENDROOT
BRANCH   1   7
ATOM      7  S   UNL     1      -0.946   0.103  -1.779  1.00  0.00    -0.123 SA
BRANCH   7   8
ATOM      8  C   UNL     1      -2.591   0.037  -1.279  1.00  0.00     0.021 C 
ATOM      9  C   UNL     1      -5.588   0.883   0.347  1.00  0.00     0.131 C 
ATOM     10  C   UNL     1      -4.978  -0.468   0.745  1.00  0.00     0.235 C 
ATOM     11  C   UNL     1      -4.882   0.647  -1.032  1.00  0.00     0.114 C 
ATOM     12  O   UNL     1      -4.760  -1.048   1.782  1.00  0.00    -0.274 OA
ATOM     13  N   UNL     1      -4.593  -0.730  -0.547  1.00  0.00    -0.300 N 
ATOM     14  C   UNL     1      -3.519   1.215  -1.476  1.00  0.00     0.049 C 
ATOM     15  C   UNL     1      -3.263  -1.022  -0.791  1.00  0.00     0.140 C 
ATOM     16  C   UNL     1      -3.149   2.472  -0.703  1.00  0.00     0.015 C 
BRANCH   9  17
ATOM     17  C   UNL     1      -7.104   1.010   0.349  1.00  0.00     0.125 C 
ATOM     18  C   UNL     1      -7.829  -0.238  -0.133  1.00  0.00     0.039 C 
BRANCH  17  19
ATOM     19  O   UNL     1      -7.554   1.286   1.675  1.00  0.00    -0.393 OA
ATOM     20  H   UNL     1      -7.257   2.177   1.929  1.00  0.00     0.210 HD
ENDBRANCH  17  19
ENDBRANCH   9  17
BRANCH  15  21
ATOM     21  C   UNL     1      -2.747  -2.386  -0.499  1.00  0.00     0.353 C 
ATOM     22  O   UNL     1      -1.585  -2.731  -0.390  1.00  0.00    -0.245 OA
BRANCH  21  23
ATOM     23  O   UNL     1      -3.748  -3.279  -0.363  1.00  0.00    -0.477 OA
ATOM     24  H   UNL     1      -3.299  -4.114  -0.125  1.00  0.00     0.297 HD
ENDBRANCH  21  23
ENDBRANCH  15  21
ENDBRANCH   7   8
ENDBRANCH   1   7
BRANCH   4  25
ATOM     25  C   UNL     1       3.568   0.213   0.933  1.00  0.00     0.241 C 
ATOM     26  O   UNL     1       4.141   1.081   1.593  1.00  0.00    -0.273 OA
ATOM     27  N   UNL     1       4.198  -0.810   0.242  1.00  0.00    -0.325 N 
ATOM     28  H   UNL     1       3.607  -1.511  -0.183  1.00  0.00     0.169 HD
BRANCH  27  29
ATOM     29  C   UNL     1       5.587  -0.992   0.057  1.00  0.00     0.042 A 
ATOM     30  C   UNL     1       5.989  -2.133  -0.652  1.00  0.00     0.026 A 
ATOM     31  C   UNL     1       6.564  -0.107   0.521  1.00  0.00     0.041 A 
ATOM     32  C   UNL     1       7.341  -2.386  -0.893  1.00  0.00     0.003 A 
ATOM     33  C   UNL     1       7.923  -0.355   0.279  1.00  0.00     0.061 A 
ATOM     34  C   UNL     1       8.309  -1.498  -0.430  1.00  0.00     0.016 A 
BRANCH  33  35
ATOM     35  C   UNL     1       8.920   0.621   0.788  1.00  0.00     0.335 C 
ATOM     36  O   UNL     1       8.683   1.640   1.406  1.00  0.00    -0.246 OA
BRANCH  35  37
ATOM     37  O   UNL     1      10.185   0.274   0.497  1.00  0.00    -0.478 OA
ATOM     38  H   UNL     1      10.710   1.004   0.886  1.00  0.00     0.297 HD
ENDBRANCH  35  37
ENDBRANCH  33  35
ENDBRANCH  27  29
ENDBRANCH   4  25
TORSDOF 10
