REMARK SMILES CN(C)CCC(c1ccc(Cl)cc1)c1ccccn1
REMARK SMILES IDX 5 1 4 2 2 3 1 4 3 5 6 6 7 7 8 8 13 9 9 10 12 11 10 12 11 13
REMARK SMILES IDX 14 14 15 15 19 16 16 17 18 18 17 19
REMARK H PARENT
REMARK Flexibility Score: inf
ROOT
ATOM      1  C   UNL     1       0.885  -1.182   0.567  1.00  0.00     0.030 C 
ENDROOT
BRANCH   1   2
ATOM      2  C   UNL     1       2.175  -1.072  -0.264  1.00  0.00     0.085 C 
BRANCH   2   3
ATOM      3  N   UNL     1       2.631   0.307  -0.482  1.00  0.00    -0.309 NA
ATOM      4  C   UNL     1       3.329   0.838   0.692  1.00  0.00     0.104 C 
ATOM      5  C   UNL     1       3.513   0.379  -1.649  1.00  0.00     0.104 C 
ENDBRANCH   2   3
ENDBRANCH   1   2
BRANCH   1   6
ATOM      6  C   UNL     1      -0.400  -0.788  -0.207  1.00  0.00     0.069 C 
BRANCH   6   7
ATOM      7  C   UNL     1      -0.636   0.694  -0.491  1.00  0.00    -0.039 A 
ATOM      8  C   UNL     1      -0.250   1.714   0.392  1.00  0.00     0.006 A 
ATOM      9  C   UNL     1      -1.316   1.056  -1.669  1.00  0.00     0.006 A 
ATOM     10  C   UNL     1      -0.512   3.055   0.095  1.00  0.00     0.021 A 
ATOM     11  C   UNL     1      -1.579   2.395  -1.966  1.00  0.00     0.021 A 
ATOM     12  C   UNL     1      -1.172   3.390  -1.083  1.00  0.00     0.041 A 
ATOM     13  Cl  UNL     1      -1.494   5.041  -1.445  1.00  0.00    -0.084 Cl
ENDBRANCH   6   7
BRANCH   6  14
ATOM     14  C   UNL     1      -1.616  -1.436   0.457  1.00  0.00     0.048 A 
ATOM     15  C   UNL     1      -2.082  -1.012   1.702  1.00  0.00     0.024 A 
ATOM     16  N   UNL     1      -2.198  -2.463  -0.216  1.00  0.00    -0.261 NA
ATOM     17  C   UNL     1      -3.185  -1.648   2.265  1.00  0.00     0.003 A 
ATOM     18  C   UNL     1      -3.268  -3.059   0.354  1.00  0.00     0.111 A 
ATOM     19  C   UNL     1      -3.793  -2.692   1.580  1.00  0.00     0.020 A 
ENDBRANCH   6  14
ENDBRANCH   1   6
TORSDOF 5
