REMARK SMILES COc1cc(/C=C2\CCCN([C@@H](C)c3ccc(F)cc3)C2=O)ccc1-n1cnc(C)c1
REMARK SMILES IDX 6 1 7 2 8 3 9 4 10 5 11 6 21 7 22 8 5 9 4 10 23 11 3 12
REMARK SMILES IDX 24 13 25 14 2 15 1 16 26 17 27 18 31 19 28 20 29 21 30 22
REMARK SMILES IDX 12 23 13 24 14 25 15 26 20 27 16 28 19 29 17 30 18 31
REMARK H PARENT
REMARK Flexibility Score: inf
ROOT
ATOM      1  C   UNL     1       0.056  -0.926  -0.592  1.00  0.00     0.017 C 
ATOM      2  C   UNL     1      -0.946  -0.046  -0.795  1.00  0.00     0.018 C 
ATOM      3  C   UNL     1      -0.767   1.441  -0.860  1.00  0.00     0.043 C 
ATOM      4  C   UNL     1      -1.961   2.149  -0.256  1.00  0.00     0.026 C 
ATOM      5  C   UNL     1      -3.206   1.711  -0.995  1.00  0.00     0.121 C 
ATOM      6  N   UNL     1      -3.391   0.264  -0.989  1.00  0.00    -0.332 N 
ATOM      7  C   UNL     1      -2.328  -0.628  -0.932  1.00  0.00     0.250 C 
ATOM      8  O   UNL     1      -2.469  -1.848  -0.990  1.00  0.00    -0.269 OA
ENDROOT
BRANCH   1   9
ATOM      9  C   UNL     1       1.467  -0.565  -0.439  1.00  0.00    -0.021 A 
ATOM     10  C   UNL     1       2.061  -0.601   0.827  1.00  0.00     0.056 A 
ATOM     11  C   UNL     1       2.226  -0.190  -1.544  1.00  0.00     0.010 A 
ATOM     12  C   UNL     1       3.411  -0.256   1.008  1.00  0.00     0.143 A 
ATOM     13  C   UNL     1       3.567   0.165  -1.382  1.00  0.00     0.031 A 
ATOM     14  C   UNL     1       4.174   0.151  -0.110  1.00  0.00     0.089 A 
BRANCH  12  15
ATOM     15  O   UNL     1       4.033  -0.337   2.225  1.00  0.00    -0.495 OA
ATOM     16  C   UNL     1       3.313  -0.878   3.326  1.00  0.00     0.278 C 
ENDBRANCH  12  15
BRANCH  14  17
ATOM     17  N   UNL     1       5.543   0.559  -0.009  1.00  0.00    -0.302 N 
ATOM     18  C   UNL     1       6.243   0.971   1.107  1.00  0.00     0.204 A 
ATOM     19  C   UNL     1       6.451   0.661  -1.049  1.00  0.00     0.116 A 
ATOM     20  N   UNL     1       7.490   1.301   0.841  1.00  0.00    -0.242 NA
ATOM     21  C   UNL     1       7.633   1.110  -0.504  1.00  0.00     0.056 A 
ATOM     22  C   UNL     1       8.929   1.369  -1.168  1.00  0.00     0.068 C 
ENDBRANCH  14  17
ENDBRANCH   1   9
BRANCH   6  23
ATOM     23  C   UNL     1      -4.774  -0.220  -1.172  1.00  0.00     0.112 C 
ATOM     24  C   UNL     1      -4.961  -1.157  -2.374  1.00  0.00     0.036 C 
BRANCH  23  25
ATOM     25  C   UNL     1      -5.370  -0.728   0.134  1.00  0.00    -0.026 A 
ATOM     26  C   UNL     1      -5.191  -2.050   0.575  1.00  0.00     0.009 A 
ATOM     27  C   UNL     1      -6.103   0.155   0.952  1.00  0.00     0.009 A 
ATOM     28  C   UNL     1      -5.738  -2.482   1.785  1.00  0.00     0.039 A 
ATOM     29  C   UNL     1      -6.650  -0.278   2.161  1.00  0.00     0.039 A 
ATOM     30  C   UNL     1      -6.463  -1.593   2.566  1.00  0.00     0.123 A 
ATOM     31  F   UNL     1      -6.986  -2.006   3.728  1.00  0.00    -0.207 F 
ENDBRANCH  23  25
ENDBRANCH   6  23
TORSDOF 5
