REMARK SMILES C=CCN1C[C@H](C(=O)N(CCCN(C)C)C(=O)NCC)C[C@@H]2c3cccc4[nH]cc(c34)C[C@H]21
REMARK SMILES IDX 9 1 7 2 8 3 6 4 4 5 5 6 33 7 22 8 32 9 21 10 23 11 30 12
REMARK SMILES IDX 24 13 31 14 29 15 25 16 27 17 28 18 26 19 3 21 2 22 1 23
REMARK SMILES IDX 10 24 11 25 12 26 13 27 14 28 15 29 16 30 17 31 18 32 19 34
REMARK SMILES IDX 20 35
REMARK H PARENT 28 20 18 33
REMARK Flexibility Score: inf
ROOT
ATOM      1  N   UNL     1       2.339   0.541   0.800  1.00  0.00    -0.264 N 
ENDROOT
BRANCH   1   2
ATOM      2  C   UNL     1       1.084   0.708   1.401  1.00  0.00     0.235 C 
ATOM      3  O   UNL     1       0.932   1.362   2.440  1.00  0.00    -0.274 OA
BRANCH   2   4
ATOM      4  C   UNL     1      -0.139   0.097   0.710  1.00  0.00     0.094 C 
ATOM      5  N   UNL     1      -2.496  -0.611   1.038  1.00  0.00    -0.295 NA
ATOM      6  C   UNL     1      -1.319   0.000   1.687  1.00  0.00     0.098 C 
ATOM      7  C   UNL     1      -2.967   0.205  -0.114  1.00  0.00     0.069 C 
ATOM      8  C   UNL     1      -1.789   0.382  -1.175  1.00  0.00     0.038 C 
ATOM      9  C   UNL     1      -4.271  -0.371  -0.793  1.00  0.00     0.057 C 
ATOM     10  C   UNL     1      -0.539   0.956  -0.494  1.00  0.00     0.025 C 
ATOM     11  C   UNL     1      -2.249   1.196  -2.374  1.00  0.00    -0.034 A 
ATOM     12  C   UNL     1      -4.619   0.411  -2.015  1.00  0.00    -0.021 A 
ATOM     13  C   UNL     1      -1.453   1.959  -3.239  1.00  0.00     0.005 A 
ATOM     14  C   UNL     1      -3.610   1.119  -2.697  1.00  0.00     0.006 A 
ATOM     15  C   UNL     1      -5.794   0.632  -2.697  1.00  0.00     0.087 A 
ATOM     16  C   UNL     1      -2.014   2.625  -4.340  1.00  0.00     0.002 A 
ATOM     17  C   UNL     1      -4.163   1.769  -3.782  1.00  0.00     0.046 A 
ATOM     18  N   UNL     1      -5.506   1.458  -3.765  1.00  0.00    -0.361 N 
ATOM     19  C   UNL     1      -3.385   2.549  -4.637  1.00  0.00     0.027 A 
ATOM     20  H   UNL     1      -6.180   1.788  -4.441  1.00  0.00     0.166 HD
BRANCH   5  21
ATOM     21  C   UNL     1      -3.522  -0.947   2.037  1.00  0.00     0.111 C 
BRANCH  21  22
ATOM     22  C   UNL     1      -4.164   0.222   2.732  1.00  0.00    -0.019 C 
ATOM     23  C   UNL     1      -4.090   0.453   4.050  1.00  0.00     0.005 C 
ENDBRANCH  21  22
ENDBRANCH   5  21
ENDBRANCH   2   4
ENDBRANCH   1   2
BRANCH   1  24
ATOM     24  C   UNL     1       2.591  -0.515  -0.189  1.00  0.00     0.132 C 
BRANCH  24  25
ATOM     25  C   UNL     1       2.894  -1.859   0.483  1.00  0.00     0.038 C 
BRANCH  25  26
ATOM     26  C   UNL     1       3.186  -2.938  -0.567  1.00  0.00     0.085 C 
BRANCH  26  27
ATOM     27  N   UNL     1       3.312  -4.283   0.017  1.00  0.00    -0.309 NA
ATOM     28  C   UNL     1       4.512  -4.413   0.848  1.00  0.00     0.104 C 
ATOM     29  C   UNL     1       3.344  -5.290  -1.049  1.00  0.00     0.104 C 
ENDBRANCH  26  27
ENDBRANCH  25  26
ENDBRANCH  24  25
ENDBRANCH   1  24
BRANCH   1  30
ATOM     30  C   UNL     1       3.498   1.215   1.229  1.00  0.00     0.324 C 
ATOM     31  O   UNL     1       4.630   0.896   0.863  1.00  0.00    -0.248 OA
ATOM     32  N   UNL     1       3.290   2.282   2.065  1.00  0.00    -0.338 N 
ATOM     33  H   UNL     1       2.397   2.283   2.557  1.00  0.00     0.165 HD
BRANCH  32  34
ATOM     34  C   UNL     1       4.381   3.022   2.660  1.00  0.00     0.114 C 
ATOM     35  C   UNL     1       4.973   4.035   1.696  1.00  0.00     0.027 C 
ENDBRANCH  32  34
ENDBRANCH   1  30
TORSDOF 10
