REMARK SMILES CC1=C[C@@H]2CN(C(=O)N2OS(=O)(=O)O)[C@@H]1C(N)=O
REMARK SMILES IDX 10 1 9 2 1 3 2 4 3 5 15 6 4 7 6 8 5 9 7 10 8 11 16 12 17 13
REMARK SMILES IDX 18 14 11 17 12 18 13 19 14 20
REMARK H PARENT 17 15 17 16 14 21
REMARK Flexibility Score: inf
ROOT
ATOM      1  O   UNL     1       2.346   0.604  -0.879  1.00  0.00    -0.121 OA
ENDROOT
BRANCH   1   2
ATOM      2  N   UNL     1       1.771  -0.019   0.267  1.00  0.00    -0.175 N 
ATOM      3  C   UNL     1      -1.912  -0.224  -2.255  1.00  0.00     0.042 C 
ATOM      4  C   UNL     1      -1.016  -0.469  -1.073  1.00  0.00    -0.043 C 
ATOM      5  C   UNL     1       0.165  -1.129  -1.200  1.00  0.00     0.004 C 
ATOM      6  C   UNL     1      -1.439   0.175   0.274  1.00  0.00     0.202 C 
ATOM      7  C   UNL     1       1.106  -1.287  -0.007  1.00  0.00     0.161 C 
ATOM      8  N   UNL     1      -0.315   0.006   1.230  1.00  0.00    -0.305 N 
ATOM      9  C   UNL     1       0.230  -1.355   1.236  1.00  0.00     0.155 C 
ATOM     10  C   UNL     1       0.789   0.839   0.842  1.00  0.00     0.346 C 
ATOM     11  O   UNL     1       0.823   2.061   0.807  1.00  0.00    -0.246 OA
BRANCH   6  12
ATOM     12  C   UNL     1      -2.760  -0.402   0.864  1.00  0.00     0.244 C 
ATOM     13  N   UNL     1      -2.824  -0.440   2.235  1.00  0.00    -0.368 N 
ATOM     14  O   UNL     1      -3.749  -0.702   0.198  1.00  0.00    -0.273 OA
ATOM     15  H   UNL     1      -2.097   0.005   2.788  1.00  0.00     0.159 HD
ATOM     16  H   UNL     1      -3.711  -0.668   2.664  1.00  0.00     0.159 HD
ENDBRANCH   6  12
ENDBRANCH   1   2
BRANCH   1  17
ATOM     17  S   UNL     1       3.731   1.431  -0.564  1.00  0.00     0.418 S 
ATOM     18  O   UNL     1       4.387   1.691  -1.829  1.00  0.00    -0.167 OA
ATOM     19  O   UNL     1       4.435   0.758   0.511  1.00  0.00    -0.167 OA
BRANCH  17  20
ATOM     20  O   UNL     1       3.200   2.849   0.002  1.00  0.00    -0.262 OA
ATOM     21  H   UNL     1       2.285   2.734   0.368  1.00  0.00     0.236 HD
ENDBRANCH  17  20
ENDBRANCH   1  17
TORSDOF 4
