REMARK SMILES CCn1cc(C(=O)O)c(=O)c2ccc(-c3ccncc3)cc21
REMARK SMILES IDX 3 1 4 2 5 3 9 4 10 5 11 6 12 7 13 8 14 9 21 10 22 11 2 12
REMARK SMILES IDX 1 13 6 14 7 15 8 16 15 18 16 19 20 20 17 21 19 22 18 23
REMARK H PARENT 8 17
REMARK Flexibility Score: inf
ROOT
ATOM      1  N   UNL     1      -1.805  -0.839  -0.194  1.00  0.00    -0.347 N 
ATOM      2  C   UNL     1      -3.096  -0.336  -0.293  1.00  0.00     0.105 C 
ATOM      3  C   UNL     1      -3.444   0.938  -0.528  1.00  0.00     0.124 C 
ATOM      4  C   UNL     1      -2.349   1.909  -0.736  1.00  0.00     0.203 C 
ATOM      5  O   UNL     1      -2.548   3.069  -1.084  1.00  0.00    -0.288 OA
ATOM      6  C   UNL     1      -0.957   1.423  -0.541  1.00  0.00     0.047 A 
ATOM      7  C   UNL     1       0.093   2.347  -0.640  1.00  0.00     0.015 A 
ATOM      8  C   UNL     1       1.410   1.929  -0.467  1.00  0.00     0.009 A 
ATOM      9  C   UNL     1       1.699   0.587  -0.192  1.00  0.00    -0.016 A 
ATOM     10  C   UNL     1       0.627  -0.327  -0.102  1.00  0.00     0.035 A 
ATOM     11  C   UNL     1      -0.716   0.059  -0.274  1.00  0.00     0.053 A 
ENDROOT
BRANCH   1  12
ATOM     12  C   UNL     1      -1.577  -2.273   0.060  1.00  0.00     0.119 C 
ATOM     13  C   UNL     1      -1.466  -2.555   1.551  1.00  0.00     0.027 C 
ENDBRANCH   1  12
BRANCH   3  14
ATOM     14  C   UNL     1      -4.877   1.256  -0.568  1.00  0.00     0.341 C 
ATOM     15  O   UNL     1      -5.774   0.465  -0.813  1.00  0.00    -0.246 OA
BRANCH  14  16
ATOM     16  O   UNL     1      -5.156   2.524  -0.234  1.00  0.00    -0.477 OA
ATOM     17  H   UNL     1      -6.128   2.601  -0.317  1.00  0.00     0.297 HD
ENDBRANCH  14  16
ENDBRANCH   3  14
BRANCH   9  18
ATOM     18  C   UNL     1       3.087   0.139  -0.003  1.00  0.00    -0.015 A 
ATOM     19  C   UNL     1       4.056   0.348  -0.991  1.00  0.00     0.029 A 
ATOM     20  C   UNL     1       3.484  -0.510   1.173  1.00  0.00     0.029 A 
ATOM     21  C   UNL     1       5.350  -0.096  -0.768  1.00  0.00     0.111 A 
ATOM     22  C   UNL     1       4.803  -0.914   1.305  1.00  0.00     0.111 A 
ATOM     23  N   UNL     1       5.745  -0.724   0.358  1.00  0.00    -0.265 NA
ENDBRANCH   9  18
TORSDOF 4
