REMARK SMILES CCc1cc(C(N)=O)ccc1-n1nc(C(C)C)c2c(-n3cnc(-c4cnn(C)c4)c3)ccnc21
REMARK SMILES IDX 12 1 13 2 14 3 18 4 34 5 33 6 32 7 31 8 19 9 11 10 3 11 4 12
REMARK SMILES IDX 5 13 10 14 9 15 2 16 1 17 6 18 7 19 8 20 15 23 16 24 17 25
REMARK SMILES IDX 20 26 21 27 30 28 22 29 23 30 24 31 29 32 25 33 27 34 26 35
REMARK SMILES IDX 28 36
REMARK H PARENT 7 21 7 22
REMARK Flexibility Score: inf
ROOT
ATOM      1  N   UNL     1      -2.080   0.507   0.249  1.00  0.00    -0.214 N 
ATOM      2  N   UNL     1      -1.720  -0.779   0.462  1.00  0.00    -0.170 NA
ATOM      3  C   UNL     1      -0.389  -0.823   0.383  1.00  0.00     0.077 A 
ATOM      4  C   UNL     1       0.157   0.430  -0.016  1.00  0.00     0.067 A 
ATOM      5  C   UNL     1      -0.946   1.292   0.009  1.00  0.00     0.165 A 
ATOM      6  N   UNL     1      -0.907   2.631  -0.192  1.00  0.00    -0.236 NA
ATOM      7  C   UNL     1       0.319   3.141  -0.389  1.00  0.00     0.116 A 
ATOM      8  C   UNL     1       1.486   2.407  -0.451  1.00  0.00     0.047 A 
ATOM      9  C   UNL     1       1.415   1.013  -0.311  1.00  0.00     0.061 A 
ENDROOT
BRANCH   1  10
ATOM     10  C   UNL     1      -3.466   0.901   0.323  1.00  0.00     0.070 A 
ATOM     11  C   UNL     1      -4.541  -0.029   0.282  1.00  0.00    -0.022 A 
ATOM     12  C   UNL     1      -5.868   0.462   0.362  1.00  0.00     0.019 A 
ATOM     13  C   UNL     1      -6.150   1.826   0.476  1.00  0.00     0.040 A 
ATOM     14  C   UNL     1      -3.774   2.271   0.460  1.00  0.00     0.029 A 
ATOM     15  C   UNL     1      -5.095   2.729   0.539  1.00  0.00     0.016 A 
BRANCH  11  16
ATOM     16  C   UNL     1      -4.418  -1.531   0.093  1.00  0.00     0.034 C 
ATOM     17  C   UNL     1      -4.122  -1.914  -1.351  1.00  0.00     0.009 C 
ENDBRANCH  11  16
BRANCH  13  18
ATOM     18  C   UNL     1      -7.572   2.256   0.550  1.00  0.00     0.248 C 
ATOM     19  N   UNL     1      -7.860   3.548   0.209  1.00  0.00    -0.366 N 
ATOM     20  O   UNL     1      -8.465   1.481   0.870  1.00  0.00    -0.270 OA
ATOM     21  H   UNL     1      -8.845   3.775   0.145  1.00  0.00     0.159 HD
ATOM     22  H   UNL     1      -7.218   4.119  -0.321  1.00  0.00     0.159 HD
ENDBRANCH  13  18
ENDBRANCH   1  10
BRANCH   3  23
ATOM     23  C   UNL     1       0.289  -2.110   0.785  1.00  0.00     0.035 C 
ATOM     24  C   UNL     1      -0.027  -2.480   2.241  1.00  0.00     0.014 C 
ATOM     25  C   UNL     1      -0.087  -3.268  -0.143  1.00  0.00     0.014 C 
ENDBRANCH   3  23
BRANCH   9  26
ATOM     26  N   UNL     1       2.592   0.264  -0.540  1.00  0.00    -0.305 N 
ATOM     27  C   UNL     1       2.687  -0.949  -1.182  1.00  0.00     0.205 A 
ATOM     28  C   UNL     1       3.887   0.655  -0.283  1.00  0.00     0.121 A 
ATOM     29  N   UNL     1       3.925  -1.383  -1.258  1.00  0.00    -0.236 NA
ATOM     30  C   UNL     1       4.681  -0.389  -0.698  1.00  0.00     0.092 A 
BRANCH  30  31
ATOM     31  C   UNL     1       6.122  -0.520  -0.603  1.00  0.00     0.040 A 
ATOM     32  C   UNL     1       7.046   0.338  -0.051  1.00  0.00     0.118 A 
ATOM     33  C   UNL     1       6.876  -1.610  -1.076  1.00  0.00     0.145 A 
ATOM     34  N   UNL     1       8.258  -0.270  -0.216  1.00  0.00    -0.275 N 
ATOM     35  N   UNL     1       8.185  -1.460  -0.841  1.00  0.00    -0.181 NA
ATOM     36  C   UNL     1       9.543   0.226   0.212  1.00  0.00     0.173 C 
ENDBRANCH  30  31
ENDBRANCH   9  26
TORSDOF 6
