REMARK SMILES c1ccc2c(c1)Sc1ccccc1N2CC1CN2CCC1CC2
REMARK SMILES IDX 15 1 14 2 1 3 2 4 6 5 3 6 5 7 4 8 7 9 8 10 13 11 9 12 12 13
REMARK SMILES IDX 10 14 11 15 16 16 17 17 21 18 18 19 20 20 22 21 19 22 23 23
REMARK H PARENT
REMARK Flexibility Score: inf
ROOT
ATOM      1  C   UNL     1       0.229   0.562   1.077  1.00  0.00     0.128 C 
ENDROOT
BRANCH   1   2
ATOM      2  N   UNL     1      -1.213   0.200   1.000  1.00  0.00    -0.339 N 
ATOM      3  C   UNL     1      -3.642   2.938  -1.168  1.00  0.00     0.001 A 
ATOM      4  C   UNL     1      -2.743   3.399  -0.217  1.00  0.00     0.002 A 
ATOM      5  C   UNL     1      -3.752   1.570  -1.402  1.00  0.00     0.017 A 
ATOM      6  C   UNL     1      -1.949   2.491   0.491  1.00  0.00     0.027 A 
ATOM      7  C   UNL     1      -2.961   0.652  -0.691  1.00  0.00     0.036 A 
ATOM      8  C   UNL     1      -2.025   1.103   0.260  1.00  0.00     0.055 A 
ATOM      9  S   UNL     1      -3.161  -1.071  -1.100  1.00  0.00    -0.086 SA
ATOM     10  C   UNL     1      -2.385  -1.861   0.296  1.00  0.00     0.036 A 
ATOM     11  C   UNL     1      -1.507  -1.180   1.161  1.00  0.00     0.055 A 
ATOM     12  C   UNL     1      -2.657  -3.226   0.486  1.00  0.00     0.017 A 
ATOM     13  C   UNL     1      -0.972  -1.904   2.246  1.00  0.00     0.027 A 
ATOM     14  C   UNL     1      -2.088  -3.925   1.548  1.00  0.00     0.001 A 
ATOM     15  C   UNL     1      -1.251  -3.261   2.434  1.00  0.00     0.002 A 
ENDBRANCH   1   2
BRANCH   1  16
ATOM     16  C   UNL     1       0.933   0.521  -0.298  1.00  0.00     0.026 C 
ATOM     17  C   UNL     1       1.219  -0.922  -0.777  1.00  0.00     0.090 C 
ATOM     18  C   UNL     1       2.273   1.303  -0.295  1.00  0.00    -0.002 C 
ATOM     19  N   UNL     1       2.589  -1.056  -1.334  1.00  0.00    -0.303 NA
ATOM     20  C   UNL     1       3.342   0.499   0.464  1.00  0.00     0.019 C 
ATOM     21  C   UNL     1       2.740   1.397  -1.760  1.00  0.00     0.019 C 
ATOM     22  C   UNL     1       3.559  -0.851  -0.238  1.00  0.00     0.085 C 
ATOM     23  C   UNL     1       2.798  -0.016  -2.363  1.00  0.00     0.085 C 
ENDBRANCH   1  16
TORSDOF 2
