REMARK SMILES Cc1cc(NS(=O)(=O)c2ccc(N)cc2)no1
REMARK SMILES IDX 6 1 7 2 8 3 5 4 4 6 1 7 2 8 3 9 17 10 16 11 9 12 10 13 15 14
REMARK SMILES IDX 11 15 14 16 12 17 13 18
REMARK H PARENT 5 5 13 19 13 20
REMARK Flexibility Score: inf
ROOT
ATOM      1  S   UNL     1      -0.189  -2.305   0.894  1.00  0.00     0.263 S 
ATOM      2  O   UNL     1       0.328  -2.290   2.245  1.00  0.00    -0.201 OA
ATOM      3  O   UNL     1      -0.806  -3.505   0.360  1.00  0.00    -0.201 OA
ENDROOT
BRANCH   1   4
ATOM      4  N   UNL     1       1.017  -1.916  -0.188  1.00  0.00    -0.261 N 
ATOM      5  H   UNL     1       1.111  -2.569  -0.958  1.00  0.00     0.182 HD
BRANCH   4   6
ATOM      6  C   UNL     1       1.860  -0.825  -0.081  1.00  0.00     0.183 A 
ATOM      7  C   UNL     1       4.585   1.470  -0.952  1.00  0.00     0.091 C 
ATOM      8  C   UNL     1       3.468   0.614  -0.518  1.00  0.00     0.135 A 
ATOM      9  C   UNL     1       2.905  -0.547  -0.988  1.00  0.00     0.096 A 
ATOM     10  O   UNL     1       2.800   1.010   0.596  1.00  0.00    -0.360 OA
ATOM     11  N   UNL     1       1.790   0.108   0.869  1.00  0.00    -0.061 NA
ENDBRANCH   4   6
ENDBRANCH   1   4
BRANCH   1  12
ATOM     12  C   UNL     1      -1.368  -0.992   0.702  1.00  0.00     0.088 A 
ATOM     13  C   UNL     1      -1.404   0.055   1.624  1.00  0.00     0.024 A 
ATOM     14  C   UNL     1      -2.283  -1.037  -0.352  1.00  0.00     0.024 A 
ATOM     15  C   UNL     1      -2.353   1.070   1.476  1.00  0.00     0.027 A 
ATOM     16  C   UNL     1      -3.229  -0.017  -0.486  1.00  0.00     0.027 A 
ATOM     17  C   UNL     1      -3.303   1.018   0.452  1.00  0.00     0.031 A 
BRANCH  17  18
ATOM     18  N   UNL     1      -4.172   2.095   0.242  1.00  0.00    -0.399 N 
ATOM     19  H   UNL     1      -4.382   2.621   1.085  1.00  0.00     0.156 HD
ATOM     20  H   UNL     1      -5.009   1.854  -0.279  1.00  0.00     0.156 HD
ENDBRANCH  17  18
ENDBRANCH   1  12
TORSDOF 4
