REMARK SMILES CO/N=C(\C(=O)N[C@@H]1C(=O)N2C(C(=O)O)=CCS[C@H]12)c1csc(N)n1
REMARK SMILES IDX 5 1 6 2 7 3 4 5 3 6 2 7 1 8 20 9 21 10 25 11 22 12 23 13
REMARK SMILES IDX 24 14 8 17 9 18 19 19 10 20 11 21 18 22 12 23 17 24 16 25
REMARK SMILES IDX 13 26 14 27 15 28
REMARK H PARENT 7 4 24 15 24 16 15 29
REMARK Flexibility Score: inf
ROOT
ATOM      1  C   UNL     1      -1.405   0.694   0.306  1.00  0.00     0.276 C 
ATOM      2  O   UNL     1      -1.391   1.542   1.186  1.00  0.00    -0.267 OA
ATOM      3  N   UNL     1      -0.328   0.382  -0.498  1.00  0.00    -0.336 N 
ATOM      4  H   UNL     1      -0.426  -0.379  -1.163  1.00  0.00     0.164 HD
ENDROOT
BRANCH   1   5
ATOM      5  C   UNL     1      -2.669  -0.106   0.013  1.00  0.00     0.193 C 
ATOM      6  N   UNL     1      -2.840  -1.330   0.428  1.00  0.00    -0.079 NA
BRANCH   6   7
ATOM      7  O   UNL     1      -1.739  -1.773   1.176  1.00  0.00    -0.398 OA
ATOM      8  C   UNL     1      -2.008  -3.085   1.654  1.00  0.00     0.315 C 
ENDBRANCH   6   7
BRANCH   5   9
ATOM      9  C   UNL     1      -3.724   0.498  -0.792  1.00  0.00     0.111 A 
ATOM     10  C   UNL     1      -4.971  -0.063  -1.013  1.00  0.00     0.099 A 
ATOM     11  N   UNL     1      -3.531   1.719  -1.433  1.00  0.00    -0.218 NA
ATOM     12  S   UNL     1      -5.911   0.958  -2.016  1.00  0.00    -0.105 S 
ATOM     13  C   UNL     1      -4.601   2.061  -2.104  1.00  0.00     0.180 A 
BRANCH  13  14
ATOM     14  N   UNL     1      -4.690   3.201  -2.808  1.00  0.00    -0.375 N 
ATOM     15  H   UNL     1      -5.618   3.574  -2.968  1.00  0.00     0.159 HD
ATOM     16  H   UNL     1      -4.007   3.909  -2.561  1.00  0.00     0.159 HD
ENDBRANCH  13  14
ENDBRANCH   5   9
ENDBRANCH   1   5
BRANCH   3  17
ATOM     17  C   UNL     1       0.947   1.130  -0.386  1.00  0.00     0.206 C 
ATOM     18  C   UNL     1       2.107   0.654  -1.303  1.00  0.00     0.253 C 
ATOM     19  C   UNL     1       1.924   0.777   0.780  1.00  0.00     0.181 C 
ATOM     20  O   UNL     1       2.217   0.322  -2.460  1.00  0.00    -0.272 OA
ATOM     21  N   UNL     1       2.956   0.625  -0.241  1.00  0.00    -0.289 N 
ATOM     22  S   UNL     1       1.657  -0.808   1.643  1.00  0.00    -0.130 SA
ATOM     23  C   UNL     1       4.088  -0.124  -0.086  1.00  0.00     0.127 C 
ATOM     24  C   UNL     1       3.379  -0.948   2.193  1.00  0.00     0.101 C 
ATOM     25  C   UNL     1       4.333  -0.804   1.049  1.00  0.00     0.018 C 
BRANCH  23  26
ATOM     26  C   UNL     1       5.083  -0.123  -1.198  1.00  0.00     0.352 C 
ATOM     27  O   UNL     1       5.256   0.777  -2.001  1.00  0.00    -0.245 OA
BRANCH  26  28
ATOM     28  O   UNL     1       5.831  -1.241  -1.239  1.00  0.00    -0.477 OA
ATOM     29  H   UNL     1       6.390  -1.102  -2.033  1.00  0.00     0.297 HD
ENDBRANCH  26  28
ENDBRANCH  23  26
ENDBRANCH   3  17
TORSDOF 7
