REMARK SMILES Cc1cc2c(cc1CC(=O)c1sccc1S(=O)(=O)Nc1onc(C)c1Cl)OCO2
REMARK SMILES IDX 11 1 12 2 13 3 14 4 15 5 9 6 10 7 8 8 7 9 1 10 2 11 3 12
REMARK SMILES IDX 4 13 6 14 5 15 29 16 27 17 28 18 16 19 17 20 18 21 19 22
REMARK SMILES IDX 20 24 21 25 25 26 22 27 23 28 26 29 24 30
REMARK H PARENT 19 23
REMARK Flexibility Score: inf
ROOT
ATOM      1  C   UNL     1      -0.383  -1.315  -2.121  1.00  0.00     0.091 A 
ATOM      2  S   UNL     1      -0.340  -2.985  -2.515  1.00  0.00    -0.139 S 
ATOM      3  C   UNL     1      -2.024  -3.042  -2.793  1.00  0.00     0.067 A 
ATOM      4  C   UNL     1      -2.622  -1.820  -2.583  1.00  0.00     0.035 A 
ATOM      5  C   UNL     1      -1.677  -0.828  -2.174  1.00  0.00     0.109 A 
ENDROOT
BRANCH   1   6
ATOM      6  C   UNL     1       0.847  -0.582  -1.838  1.00  0.00     0.178 C 
ATOM      7  O   UNL     1       0.994   0.583  -2.205  1.00  0.00    -0.293 OA
BRANCH   6   8
ATOM      8  C   UNL     1       1.957  -1.333  -1.105  1.00  0.00     0.118 C 
BRANCH   8   9
ATOM      9  C   UNL     1       2.948  -0.433  -0.390  1.00  0.00    -0.033 A 
ATOM     10  C   UNL     1       1.432  -0.251   1.664  1.00  0.00     0.045 C 
ATOM     11  C   UNL     1       2.694   0.081   0.913  1.00  0.00    -0.044 A 
ATOM     12  C   UNL     1       3.646   0.912   1.533  1.00  0.00     0.054 A 
ATOM     13  C   UNL     1       4.801   1.217   0.846  1.00  0.00     0.166 A 
ATOM     14  C   UNL     1       4.140  -0.087  -1.058  1.00  0.00     0.055 A 
ATOM     15  C   UNL     1       5.040   0.733  -0.415  1.00  0.00     0.166 A 
ATOM     16  O   UNL     1       5.813   2.004   1.302  1.00  0.00    -0.454 OA
ATOM     17  O   UNL     1       6.233   1.152  -0.916  1.00  0.00    -0.454 OA
ATOM     18  C   UNL     1       6.706   1.975   0.169  1.00  0.00     0.468 C 
ENDBRANCH   8   9
ENDBRANCH   6   8
ENDBRANCH   1   6
BRANCH   5  19
ATOM     19  S   UNL     1      -2.124   0.801  -1.780  1.00  0.00     0.265 S 
ATOM     20  O   UNL     1      -1.407   1.110  -0.564  1.00  0.00    -0.201 OA
ATOM     21  O   UNL     1      -1.950   1.531  -3.014  1.00  0.00    -0.201 OA
BRANCH  19  22
ATOM     22  N   UNL     1      -3.781   0.855  -1.439  1.00  0.00    -0.246 N 
ATOM     23  H   UNL     1      -4.126   1.800  -1.614  1.00  0.00     0.183 HD
BRANCH  22  24
ATOM     24  C   UNL     1      -4.100   0.346  -0.105  1.00  0.00     0.257 A 
ATOM     25  O   UNL     1      -3.674  -0.845   0.399  1.00  0.00    -0.336 OA
ATOM     26  C   UNL     1      -4.890   0.967   0.831  1.00  0.00     0.129 A 
ATOM     27  N   UNL     1      -4.177  -1.018   1.677  1.00  0.00    -0.081 NA
ATOM     28  C   UNL     1      -4.901   0.080   1.933  1.00  0.00     0.101 A 
ATOM     29  Cl  UNL     1      -5.681   2.461   0.718  1.00  0.00    -0.076 Cl
ATOM     30  C   UNL     1      -5.589   0.234   3.235  1.00  0.00     0.072 C 
ENDBRANCH  22  24
ENDBRANCH  19  22
ENDBRANCH   5  19
TORSDOF 6
