REMARK SMILES NC(=O)Cn1c(=O)cc(CCN2CCN(c3nccc4sccc34)CC2)c2ccc(F)cc21
REMARK SMILES IDX 10 1 9 2 5 3 6 4 33 5 7 6 8 7 27 8 32 9 28 10 30 11 29 12
REMARK SMILES IDX 31 13 4 14 2 15 1 16 3 19 11 20 12 21 13 22 26 23 14 24
REMARK SMILES IDX 25 25 15 26 16 27 24 28 17 29 23 30 20 31 18 32 22 33 21 34
REMARK SMILES IDX 19 35
REMARK H PARENT 1 17 1 18
REMARK Flexibility Score: inf
ROOT
ATOM      1  C   UNL     1      -1.150   0.195   1.453  1.00  0.00     0.052 C 
ENDROOT
BRANCH   1   2
ATOM      2  C   UNL     1      -2.423   0.434   0.668  1.00  0.00    -0.032 C 
ATOM      3  N   UNL     1      -4.763   0.932  -0.877  1.00  0.00    -0.299 N 
ATOM      4  C   UNL     1      -3.969   1.992  -0.480  1.00  0.00     0.251 C 
ATOM      5  C   UNL     1      -4.516  -0.402  -0.422  1.00  0.00     0.055 A 
ATOM      6  O   UNL     1      -4.233   3.171  -0.714  1.00  0.00    -0.269 OA
ATOM      7  C   UNL     1      -2.746   1.677   0.282  1.00  0.00     0.076 C 
ATOM      8  C   UNL     1      -3.356  -0.669   0.347  1.00  0.00     0.002 A 
ATOM      9  C   UNL     1      -5.405  -1.452  -0.708  1.00  0.00     0.066 A 
ATOM     10  C   UNL     1      -3.121  -1.985   0.792  1.00  0.00     0.013 A 
ATOM     11  C   UNL     1      -5.141  -2.740  -0.255  1.00  0.00     0.125 A 
ATOM     12  C   UNL     1      -4.008  -3.017   0.489  1.00  0.00     0.040 A 
ATOM     13  F   UNL     1      -6.001  -3.727  -0.539  1.00  0.00    -0.207 F 
BRANCH   3  14
ATOM     14  C   UNL     1      -5.923   1.243  -1.714  1.00  0.00     0.225 C 
BRANCH  14  15
ATOM     15  C   UNL     1      -7.177   1.530  -0.891  1.00  0.00     0.237 C 
ATOM     16  N   UNL     1      -7.044   2.453   0.107  1.00  0.00    -0.368 N 
ATOM     17  H   UNL     1      -6.246   3.084   0.108  1.00  0.00     0.159 HD
ATOM     18  H   UNL     1      -7.889   2.759   0.571  1.00  0.00     0.159 HD
ATOM     19  O   UNL     1      -8.274   1.044  -1.153  1.00  0.00    -0.273 OA
ENDBRANCH  14  15
ENDBRANCH   3  14
ENDBRANCH   1   2
BRANCH   1  20
ATOM     20  C   UNL     1      -0.016  -0.378   0.579  1.00  0.00     0.089 C 
BRANCH  20  21
ATOM     21  N   UNL     1       1.163  -0.755   1.376  1.00  0.00    -0.299 NA
ATOM     22  C   UNL     1       1.961   0.409   1.833  1.00  0.00     0.106 C 
ATOM     23  C   UNL     1       2.013  -1.705   0.612  1.00  0.00     0.106 C 
ATOM     24  C   UNL     1       3.239   0.698   1.009  1.00  0.00     0.133 C 
ATOM     25  C   UNL     1       3.465  -1.770   1.130  1.00  0.00     0.133 C 
ATOM     26  N   UNL     1       4.156  -0.466   1.001  1.00  0.00    -0.354 N 
BRANCH  26  27
ATOM     27  C   UNL     1       4.983  -0.391  -0.138  1.00  0.00     0.137 A 
ATOM     28  C   UNL     1       6.155   0.417  -0.151  1.00  0.00     0.035 A 
ATOM     29  N   UNL     1       4.651  -1.083  -1.262  1.00  0.00    -0.239 NA
ATOM     30  C   UNL     1       6.752   1.222   0.887  1.00  0.00     0.024 A 
ATOM     31  C   UNL     1       6.916   0.483  -1.321  1.00  0.00     0.039 A 
ATOM     32  C   UNL     1       5.416  -0.996  -2.366  1.00  0.00     0.115 A 
ATOM     33  C   UNL     1       7.897   1.867   0.485  1.00  0.00     0.066 A 
ATOM     34  S   UNL     1       8.282   1.519  -1.137  1.00  0.00    -0.144 S 
ATOM     35  C   UNL     1       6.557  -0.230  -2.467  1.00  0.00     0.040 A 
ENDBRANCH  26  27
ENDBRANCH  20  21
ENDBRANCH   1  20
TORSDOF 6
