REMARK SMILES CC1=C(C(=O)O)N2C(=O)[C@@H](NC(=O)[C@H](N)c3ccccc3)[C@H]2SC1
REMARK SMILES IDX 1 1 2 2 3 3 7 4 8 5 9 6 10 7 22 8 23 9 24 10 4 11 5 12 6 13
REMARK SMILES IDX 11 15 12 16 13 18 14 19 15 20 16 23 17 24 21 25 18 26 20 27
REMARK SMILES IDX 19 28
REMARK H PARENT 6 14 11 17 15 21 15 22
REMARK Flexibility Score: inf
ROOT
ATOM      1  C   UNL     1      -5.655  -1.367   0.016  1.00  0.00     0.043 C 
ATOM      2  C   UNL     1      -4.257  -0.958  -0.376  1.00  0.00    -0.032 C 
ATOM      3  C   UNL     1      -3.800   0.315  -0.334  1.00  0.00     0.130 C 
ATOM      4  N   UNL     1      -2.556   0.643  -0.792  1.00  0.00    -0.289 N 
ATOM      5  C   UNL     1      -1.646   1.543  -0.347  1.00  0.00     0.253 C 
ATOM      6  O   UNL     1      -1.725   2.492   0.397  1.00  0.00    -0.272 OA
ATOM      7  C   UNL     1      -0.503   0.768  -1.068  1.00  0.00     0.205 C 
ATOM      8  C   UNL     1      -1.617  -0.271  -1.410  1.00  0.00     0.181 C 
ATOM      9  S   UNL     1      -1.627  -1.840  -0.484  1.00  0.00    -0.129 SA
ATOM     10  C   UNL     1      -3.394  -2.130  -0.793  1.00  0.00     0.105 C 
ENDROOT
BRANCH   3  11
ATOM     11  C   UNL     1      -4.631   1.413   0.241  1.00  0.00     0.352 C 
ATOM     12  O   UNL     1      -5.297   1.369   1.260  1.00  0.00    -0.245 OA
BRANCH  11  13
ATOM     13  O   UNL     1      -4.603   2.507  -0.544  1.00  0.00    -0.477 OA
ATOM     14  H   UNL     1      -5.102   3.176  -0.032  1.00  0.00     0.297 HD
ENDBRANCH  11  13
ENDBRANCH   3  11
BRANCH   7  15
ATOM     15  N   UNL     1       0.620   0.320  -0.218  1.00  0.00    -0.340 N 
ATOM     16  C   UNL     1       1.637  -0.471  -0.712  1.00  0.00     0.242 C 
ATOM     17  H   UNL     1       0.590   0.390   0.799  1.00  0.00     0.164 HD
ATOM     18  O   UNL     1       1.739  -0.748  -1.905  1.00  0.00    -0.273 OA
BRANCH  16  19
ATOM     19  C   UNL     1       2.625  -0.966   0.371  1.00  0.00     0.172 C 
BRANCH  19  20
ATOM     20  N   UNL     1       1.947  -0.999   1.696  1.00  0.00    -0.316 NA
ATOM     21  H   UNL     1       2.637  -1.312   2.381  1.00  0.00     0.119 HD
ATOM     22  H   UNL     1       1.243  -1.739   1.664  1.00  0.00     0.119 HD
ENDBRANCH  19  20
BRANCH  19  23
ATOM     23  C   UNL     1       3.881  -0.118   0.400  1.00  0.00    -0.022 A 
ATOM     24  C   UNL     1       5.034  -0.557  -0.270  1.00  0.00     0.006 A 
ATOM     25  C   UNL     1       3.918   1.126   1.053  1.00  0.00     0.006 A 
ATOM     26  C   UNL     1       6.196   0.217  -0.272  1.00  0.00     0.000 A 
ATOM     27  C   UNL     1       5.081   1.898   1.050  1.00  0.00     0.000 A 
ATOM     28  C   UNL     1       6.220   1.443   0.390  1.00  0.00     0.000 A 
ENDBRANCH  19  23
ENDBRANCH  16  19
ENDBRANCH   7  15
TORSDOF 6
