REMARK SMILES Clc1ccc2c(c1)C(c1ccccc1)=NCc1nncn1-2
REMARK SMILES IDX 1 1 2 2 3 3 4 4 5 5 6 6 7 7 8 8 15 9 16 10 17 11 18 12 19 13
REMARK SMILES IDX 20 14 21 15 9 16 10 17 14 18 11 19 13 20 12 21
REMARK H PARENT
REMARK Flexibility Score: inf
ROOT
ATOM      1  Cl  UNL     1      -0.056   4.503   0.743  1.00  0.00    -0.084 Cl
ATOM      2  C   UNL     1      -0.745   2.969   0.381  1.00  0.00     0.041 A 
ATOM      3  C   UNL     1      -2.029   2.896  -0.145  1.00  0.00     0.023 A 
ATOM      4  C   UNL     1      -2.597   1.651  -0.425  1.00  0.00     0.029 A 
ATOM      5  C   UNL     1      -1.874   0.469  -0.178  1.00  0.00     0.058 A 
ATOM      6  C   UNL     1      -0.549   0.549   0.295  1.00  0.00     0.026 A 
ATOM      7  C   UNL     1      -0.006   1.809   0.602  1.00  0.00     0.033 A 
ATOM      8  C   UNL     1       0.373  -0.632   0.386  1.00  0.00     0.075 C 
ATOM      9  N   UNL     1       0.068  -1.785   0.874  1.00  0.00    -0.276 NA
ATOM     10  C   UNL     1      -1.268  -2.056   1.377  1.00  0.00     0.220 C 
ATOM     11  C   UNL     1      -2.269  -1.952   0.294  1.00  0.00     0.159 A 
ATOM     12  N   UNL     1      -3.116  -2.878  -0.109  1.00  0.00    -0.133 NA
ATOM     13  N   UNL     1      -3.956  -2.311  -1.032  1.00  0.00    -0.139 NA
ATOM     14  C   UNL     1      -3.601  -1.055  -1.166  1.00  0.00     0.231 A 
ATOM     15  N   UNL     1      -2.521  -0.774  -0.369  1.00  0.00    -0.283 N 
ENDROOT
BRANCH   8  16
ATOM     16  C   UNL     1       1.770  -0.483  -0.141  1.00  0.00     0.000 A 
ATOM     17  C   UNL     1       2.826  -1.086   0.554  1.00  0.00     0.010 A 
ATOM     18  C   UNL     1       2.028   0.217  -1.326  1.00  0.00     0.010 A 
ATOM     19  C   UNL     1       4.134  -0.962   0.084  1.00  0.00     0.001 A 
ATOM     20  C   UNL     1       3.338   0.338  -1.793  1.00  0.00     0.001 A 
ATOM     21  C   UNL     1       4.389  -0.247  -1.086  1.00  0.00     0.000 A 
ENDBRANCH   8  16
TORSDOF 1
