REMARK SMILES CN1CC[C@]23c4c5ccc(O)c4O[C@H]2C(=O)CC[C@H]3[C@H]1C5
REMARK SMILES IDX 1 1 2 2 3 3 4 4 5 5 6 6 7 7 8 8 9 9 10 10 12 11 13 12 14 13
REMARK SMILES IDX 15 14 16 15 17 16 18 17 19 18 20 19 21 20 11 21
REMARK H PARENT 11 22
REMARK Flexibility Score: inf
ROOT
ATOM      1  C   UNL     1      -3.755  -0.982   0.293  1.00  0.00     0.105 C 
ATOM      2  N   UNL     1      -2.326  -0.738   0.473  1.00  0.00    -0.303 NA
ATOM      3  C   UNL     1      -2.062   0.026   1.691  1.00  0.00     0.085 C 
ATOM      4  C   UNL     1      -0.563   0.291   1.914  1.00  0.00     0.032 C 
ATOM      5  C   UNL     1       0.184   0.667   0.608  1.00  0.00     0.049 C 
ATOM      6  C   UNL     1       0.962  -0.514   0.126  1.00  0.00     0.012 A 
ATOM      7  C   UNL     1       0.517  -1.513  -0.723  1.00  0.00    -0.039 A 
ATOM      8  C   UNL     1       1.413  -2.544  -1.013  1.00  0.00     0.008 A 
ATOM      9  C   UNL     1       2.715  -2.535  -0.466  1.00  0.00     0.050 A 
ATOM     10  C   UNL     1       3.144  -1.473   0.340  1.00  0.00     0.158 A 
ATOM     11  C   UNL     1       2.257  -0.454   0.605  1.00  0.00     0.166 A 
ATOM     12  O   UNL     1       2.500   0.719   1.280  1.00  0.00    -0.477 OA
ATOM     13  C   UNL     1       1.399   1.576   0.864  1.00  0.00     0.251 C 
ATOM     14  C   UNL     1       1.805   2.423  -0.358  1.00  0.00     0.174 C 
ATOM     15  O   UNL     1       2.956   2.823  -0.539  1.00  0.00    -0.295 OA
ATOM     16  C   UNL     1       0.697   2.868  -1.289  1.00  0.00     0.080 C 
ATOM     17  C   UNL     1      -0.171   1.689  -1.702  1.00  0.00     0.014 C 
ATOM     18  C   UNL     1      -0.831   1.069  -0.465  1.00  0.00     0.022 C 
ATOM     19  C   UNL     1      -1.691  -0.203  -0.758  1.00  0.00     0.064 C 
ATOM     20  C   UNL     1      -0.839  -1.367  -1.366  1.00  0.00     0.055 C 
ENDROOT
BRANCH  10  21
ATOM     21  O   UNL     1       4.409  -1.424   0.838  1.00  0.00    -0.504 OA
ATOM     22  H   UNL     1       4.906  -2.187   0.508  1.00  0.00     0.293 HD
ENDBRANCH  10  21
TORSDOF 1
