REMARK SMILES CC1=Nc2c(F)cc(-c3nc(Nc4ccc(C5CCN(C)CC5)cn4)ncc3F)cc2C12CCCC2
REMARK SMILES IDX 12 1 13 3 16 4 15 5 24 6 14 7 25 8 17 9 21 10 20 11 19 12
REMARK SMILES IDX 22 13 18 14 23 15 11 16 26 17 10 18 27 19 9 20 28 21 29 22
REMARK SMILES IDX 8 23 30 24 7 25 31 26 5 27 4 28 32 29 6 30 3 31 2 32 33 33
REMARK SMILES IDX 36 34 1 35 34 36 35 37
REMARK H PARENT 12 2
REMARK Flexibility Score: inf
ROOT
ATOM      1  N   UNL     1       1.310   0.150  -0.518  1.00  0.00    -0.309 N 
ATOM      2  H   UNL     1       1.099  -0.784  -0.830  1.00  0.00     0.171 HD
ENDROOT
BRANCH   1   3
ATOM      3  C   UNL     1       2.662   0.341  -0.304  1.00  0.00     0.132 A 
ATOM      4  C   UNL     1       5.417   0.509   0.068  1.00  0.00    -0.026 A 
ATOM      5  C   UNL     1       4.610   1.617   0.317  1.00  0.00     0.009 A 
ATOM      6  C   UNL     1       4.769  -0.640  -0.366  1.00  0.00     0.117 A 
ATOM      7  C   UNL     1       3.229   1.532   0.130  1.00  0.00     0.047 A 
ATOM      8  N   UNL     1       3.432  -0.741  -0.554  1.00  0.00    -0.239 NA
BRANCH   4   9
ATOM      9  C   UNL     1       6.916   0.576   0.264  1.00  0.00     0.023 C 
ATOM     10  C   UNL     1      10.249  -1.951  -0.651  1.00  0.00     0.105 C 
ATOM     11  N   UNL     1       9.477  -0.920   0.040  1.00  0.00    -0.306 NA
ATOM     12  C   UNL     1       9.156   0.210  -0.841  1.00  0.00     0.085 C 
ATOM     13  C   UNL     1       8.318  -1.503   0.724  1.00  0.00     0.085 C 
ATOM     14  C   UNL     1       7.661   0.420  -1.072  1.00  0.00     0.024 C 
ATOM     15  C   UNL     1       7.422  -0.421   1.325  1.00  0.00     0.024 C 
ENDBRANCH   4   9
ENDBRANCH   1   3
BRANCH   1  16
ATOM     16  C   UNL     1       0.176   0.919  -0.345  1.00  0.00     0.229 A 
ATOM     17  N   UNL     1       0.240   2.183   0.103  1.00  0.00    -0.218 NA
ATOM     18  N   UNL     1      -0.984   0.311  -0.650  1.00  0.00    -0.210 NA
ATOM     19  C   UNL     1      -0.925   2.847   0.248  1.00  0.00     0.156 A 
ATOM     20  C   UNL     1      -2.146   0.997  -0.487  1.00  0.00     0.112 A 
ATOM     21  C   UNL     1      -2.149   2.298  -0.030  1.00  0.00     0.167 A 
ATOM     22  F   UNL     1      -3.268   3.017   0.126  1.00  0.00    -0.203 F 
BRANCH  20  23
ATOM     23  C   UNL     1      -3.371   0.249  -0.837  1.00  0.00     0.007 A 
ATOM     24  C   UNL     1      -4.574   0.413  -0.118  1.00  0.00     0.017 A 
ATOM     25  C   UNL     1      -3.360  -0.674  -1.912  1.00  0.00     0.052 A 
ATOM     26  C   UNL     1      -5.701  -0.314  -0.489  1.00  0.00    -0.007 A 
ATOM     27  C   UNL     1      -4.501  -1.394  -2.270  1.00  0.00     0.149 A 
ATOM     28  C   UNL     1      -5.672  -1.212  -1.558  1.00  0.00     0.103 A 
ATOM     29  C   UNL     1      -7.083  -0.337   0.102  1.00  0.00     0.036 C 
ATOM     30  F   UNL     1      -4.443  -2.249  -3.300  1.00  0.00    -0.205 F 
ATOM     31  N   UNL     1      -6.914  -1.836  -1.771  1.00  0.00    -0.254 NA
ATOM     32  C   UNL     1      -7.720  -1.363  -0.862  1.00  0.00     0.026 C 
ATOM     33  C   UNL     1      -7.113  -0.802   1.567  1.00  0.00     0.018 C 
ATOM     34  C   UNL     1      -7.794   1.022   0.054  1.00  0.00     0.018 C 
ATOM     35  C   UNL     1      -9.159  -1.762  -0.783  1.00  0.00     0.063 C 
ATOM     36  C   UNL     1      -7.719   0.364   2.345  1.00  0.00     0.001 C 
ATOM     37  C   UNL     1      -8.613   1.063   1.337  1.00  0.00     0.001 C 
ENDBRANCH  20  23
ENDBRANCH   1  16
TORSDOF 4
