REMARK SMILES CN(C)CCC=C1c2ccccc2C=Cc2ccccc21
REMARK SMILES IDX 4 1 2 2 1 3 3 4 5 5 6 6 7 7 8 8 21 9 9 10 13 11 16 12 20 13
REMARK SMILES IDX 10 14 12 15 14 16 15 17 17 18 19 19 11 20 18 21
REMARK H PARENT
REMARK Flexibility Score: inf
ROOT
ATOM      1  C   UNL     1       2.508  -0.007   1.422  1.00  0.00     0.088 C 
ENDROOT
BRANCH   1   2
ATOM      2  N   UNL     1       3.714   0.834   1.515  1.00  0.00    -0.309 NA
ATOM      3  C   UNL     1       4.890   0.207   0.921  1.00  0.00     0.104 C 
ATOM      4  C   UNL     1       3.503   2.174   0.974  1.00  0.00     0.104 C 
ENDBRANCH   1   2
BRANCH   1   5
ATOM      5  C   UNL     1       2.015  -0.369   0.008  1.00  0.00     0.043 C 
BRANCH   5   6
ATOM      6  C   UNL     1       0.767  -1.209   0.071  1.00  0.00    -0.016 C 
ATOM      7  C   UNL     1      -0.472  -0.829  -0.271  1.00  0.00    -0.014 A 
ATOM      8  C   UNL     1      -1.696  -1.773  -0.044  1.00  0.00    -0.011 A 
ATOM      9  C   UNL     1      -0.862   0.597  -0.764  1.00  0.00    -0.011 A 
ATOM     10  C   UNL     1      -1.883  -2.892  -0.861  1.00  0.00     0.009 A 
ATOM     11  C   UNL     1      -2.651  -1.436   0.928  1.00  0.00    -0.018 A 
ATOM     12  C   UNL     1      -1.636   1.423   0.065  1.00  0.00    -0.018 A 
ATOM     13  C   UNL     1      -0.533   1.009  -2.059  1.00  0.00     0.009 A 
ATOM     14  C   UNL     1      -3.017  -3.688  -0.698  1.00  0.00     0.001 A 
ATOM     15  C   UNL     1      -3.787  -2.237   1.080  1.00  0.00     0.009 A 
ATOM     16  C   UNL     1      -2.465  -0.210   1.891  1.00  0.00     0.009 A 
ATOM     17  C   UNL     1      -2.030   1.006   1.525  1.00  0.00     0.009 A 
ATOM     18  C   UNL     1      -2.051   2.673  -0.406  1.00  0.00     0.009 A 
ATOM     19  C   UNL     1      -0.947   2.259  -2.518  1.00  0.00     0.001 A 
ATOM     20  C   UNL     1      -3.967  -3.360   0.269  1.00  0.00     0.001 A 
ATOM     21  C   UNL     1      -1.704   3.090  -1.693  1.00  0.00     0.001 A 
ENDBRANCH   5   6
ENDBRANCH   1   5
TORSDOF 3
