REMARK SMILES CCn1ncc2c(NC3CCOCC3)c(-c3nnc(Cc4sc(C)nc4C)o3)cnc21
REMARK SMILES IDX 3 1 4 2 5 3 6 4 7 5 15 6 29 7 30 8 31 9 2 10 1 11 8 12 9 14
REMARK SMILES IDX 10 15 14 16 11 17 13 18 12 19 16 20 17 21 28 22 18 23 19 24
REMARK SMILES IDX 20 25 21 26 26 27 22 28 27 29 25 30 23 31 24 32
REMARK H PARENT 8 13
REMARK Flexibility Score: inf
ROOT
ATOM      1  N   UNL     1      -3.567  -3.266  -0.574  1.00  0.00    -0.248 N 
ATOM      2  N   UNL     1      -4.668  -2.481  -0.533  1.00  0.00    -0.179 NA
ATOM      3  C   UNL     1      -4.180  -1.261  -0.783  1.00  0.00     0.147 A 
ATOM      4  C   UNL     1      -2.780  -1.249  -0.973  1.00  0.00     0.063 A 
ATOM      5  C   UNL     1      -1.786  -0.284  -1.240  1.00  0.00     0.062 A 
ATOM      6  C   UNL     1      -0.462  -0.771  -1.381  1.00  0.00     0.081 A 
ATOM      7  C   UNL     1      -0.239  -2.144  -1.211  1.00  0.00     0.129 A 
ATOM      8  N   UNL     1      -1.168  -3.091  -0.930  1.00  0.00    -0.236 NA
ATOM      9  C   UNL     1      -2.410  -2.578  -0.835  1.00  0.00     0.159 A 
ENDROOT
BRANCH   1  10
ATOM     10  C   UNL     1      -3.687  -4.692  -0.353  1.00  0.00     0.143 C 
ATOM     11  C   UNL     1      -3.565  -5.054   1.117  1.00  0.00     0.029 C 
ENDBRANCH   1  10
BRANCH   5  12
ATOM     12  N   UNL     1      -2.128   1.087  -1.325  1.00  0.00    -0.381 N 
ATOM     13  H   UNL     1      -1.605   1.488  -2.114  1.00  0.00     0.160 HD
BRANCH  12  14
ATOM     14  C   UNL     1      -1.804   1.869  -0.107  1.00  0.00     0.083 C 
ATOM     15  C   UNL     1      -1.765   3.361  -0.478  1.00  0.00     0.053 C 
ATOM     16  C   UNL     1      -2.838   1.640   0.994  1.00  0.00     0.053 C 
ATOM     17  C   UNL     1      -2.128   4.257   0.698  1.00  0.00     0.162 C 
ATOM     18  C   UNL     1      -2.514   2.487   2.222  1.00  0.00     0.162 C 
ATOM     19  O   UNL     1      -1.733   3.644   1.919  1.00  0.00    -0.381 OA
ENDBRANCH  12  14
ENDBRANCH   5  12
BRANCH   6  20
ATOM     20  C   UNL     1       0.647   0.105  -1.732  1.00  0.00     0.251 A 
ATOM     21  N   UNL     1       0.641   1.323  -2.238  1.00  0.00    -0.108 NA
ATOM     22  O   UNL     1       1.919  -0.363  -1.516  1.00  0.00    -0.420 OA
ATOM     23  N   UNL     1       1.958   1.713  -2.352  1.00  0.00    -0.112 NA
ATOM     24  C   UNL     1       2.681   0.708  -1.909  1.00  0.00     0.222 A 
BRANCH  24  25
ATOM     25  C   UNL     1       4.156   0.578  -1.797  1.00  0.00     0.148 C 
BRANCH  25  26
ATOM     26  C   UNL     1       4.628   0.662  -0.379  1.00  0.00     0.037 A 
ATOM     27  C   UNL     1       4.816  -0.347   0.553  1.00  0.00     0.052 A 
ATOM     28  S   UNL     1       5.028   2.178   0.323  1.00  0.00    -0.123 S 
ATOM     29  C   UNL     1       4.584  -1.803   0.360  1.00  0.00     0.068 C 
ATOM     30  N   UNL     1       5.262   0.084   1.791  1.00  0.00    -0.247 NA
ATOM     31  C   UNL     1       5.406   1.390   1.798  1.00  0.00     0.090 A 
ATOM     32  C   UNL     1       5.864   2.181   2.971  1.00  0.00     0.079 C 
ENDBRANCH  25  26
ENDBRANCH  24  25
ENDBRANCH   6  20
TORSDOF 6
