REMARK SMILES CN1CCN=C(c2ccccc2)c2cc(Cl)ccc21
REMARK SMILES IDX 13 1 14 2 15 3 16 4 17 5 18 6 19 7 2 8 1 9 3 10 6 12 5 13
REMARK SMILES IDX 7 14 8 15 12 16 9 17 11 18 10 19 4 20
REMARK H PARENT
REMARK Flexibility Score: 90.00
ROOT
ATOM      1  C   UNL     1      -0.379  -0.098   0.756  1.00  0.00     0.025 A 
ATOM      2  C   UNL     1       0.048   0.166   2.068  1.00  0.00     0.033 A 
ATOM      3  C   UNL     1      -0.808   0.810   2.950  1.00  0.00     0.041 A 
ATOM      4  Cl  UNL     1      -0.292   1.146   4.556  1.00  0.00    -0.084 Cl
ATOM      5  C   UNL     1      -2.079   1.190   2.539  1.00  0.00     0.022 A 
ATOM      6  C   UNL     1      -2.505   0.911   1.234  1.00  0.00     0.028 A 
ATOM      7  C   UNL     1      -1.677   0.246   0.312  1.00  0.00     0.046 A 
ENDROOT
BRANCH   7   8
ATOM      8  N   UNL     1      -2.096  -0.037  -0.989  1.00  0.00    -0.372 N 
ATOM      9  C   UNL     1      -3.179   0.744  -1.579  1.00  0.00     0.143 C 
BRANCH   8  10
ATOM     10  C   UNL     1      -2.061  -1.456  -1.424  1.00  0.00     0.140 CG0
ATOM     11  G   UNL     1      -1.038  -2.360  -0.724  1.00  0.00     0.000 G0
ENDBRANCH   8  10
ENDBRANCH   7   8
BRANCH   1  12
ATOM     12  C   UNL     1       0.592  -0.759  -0.170  1.00  0.00     0.074 C 
ATOM     13  N   UNL     1       0.321  -1.827  -0.852  1.00  0.00    -0.282 NA
BRANCH  12  14
ATOM     14  C   UNL     1       1.960  -0.166  -0.312  1.00  0.00     0.000 A 
ATOM     15  C   UNL     1       3.046  -1.014  -0.564  1.00  0.00     0.010 A 
ATOM     16  C   UNL     1       2.167   1.216  -0.222  1.00  0.00     0.010 A 
ATOM     17  C   UNL     1       4.331  -0.487  -0.697  1.00  0.00     0.001 A 
ATOM     18  C   UNL     1       3.455   1.740  -0.356  1.00  0.00     0.001 A 
ATOM     19  C   UNL     1       4.535   0.889  -0.589  1.00  0.00     0.000 A 
ENDBRANCH  12  14
BRANCH  13  20
ATOM     20  C   UNL     1      -1.038  -2.360  -0.724  1.00  0.00     0.164 CG0
ATOM     21  G   UNL     1      -2.061  -1.456  -1.424  1.00  0.00     0.000 G0
ENDBRANCH  13  20
ENDBRANCH   1  12
TORSDOF 1
