REMARK SMILES CCCc1c2oc(C(=O)O)cc(=O)c2cc2c(=O)cc(C(=O)O)n(CC)c12
REMARK SMILES IDX 4 1 5 2 6 3 7 4 11 5 12 6 13 7 14 8 15 9 16 10 17 11 18 12
REMARK SMILES IDX 19 13 20 14 24 15 27 16 3 17 2 18 1 19 25 20 26 21 8 22 9 23
REMARK SMILES IDX 10 24 21 26 22 27 23 28
REMARK H PARENT 10 25 23 29
REMARK Flexibility Score: inf
ROOT
ATOM      1  C   UNL     1      -0.453  -0.112   0.224  1.00  0.00     0.020 A 
ATOM      2  C   UNL     1      -1.670  -0.324  -0.475  1.00  0.00     0.144 A 
ATOM      3  O   UNL     1      -2.793   0.323  -0.012  1.00  0.00    -0.448 OA
ATOM      4  C   UNL     1      -3.994   0.154  -0.677  1.00  0.00     0.215 C 
ATOM      5  C   UNL     1      -4.167  -0.631  -1.748  1.00  0.00     0.107 C 
ATOM      6  C   UNL     1      -3.014  -1.376  -2.266  1.00  0.00     0.193 C 
ATOM      7  O   UNL     1      -3.129  -2.113  -3.235  1.00  0.00    -0.289 OA
ATOM      8  C   UNL     1      -1.733  -1.190  -1.567  1.00  0.00     0.066 A 
ATOM      9  C   UNL     1      -0.612  -1.911  -1.957  1.00  0.00     0.030 A 
ATOM     10  C   UNL     1       0.587  -1.731  -1.263  1.00  0.00     0.047 A 
ATOM     11  C   UNL     1       1.730  -2.609  -1.595  1.00  0.00     0.190 C 
ATOM     12  O   UNL     1       1.723  -3.342  -2.576  1.00  0.00    -0.289 OA
ATOM     13  C   UNL     1       2.869  -2.621  -0.665  1.00  0.00     0.086 C 
ATOM     14  C   UNL     1       2.957  -1.645   0.250  1.00  0.00     0.131 C 
ATOM     15  N   UNL     1       2.009  -0.606   0.380  1.00  0.00    -0.335 N 
ATOM     16  C   UNL     1       0.720  -0.784  -0.219  1.00  0.00     0.060 A 
ENDROOT
BRANCH   1  17
ATOM     17  C   UNL     1      -0.494   0.709   1.506  1.00  0.00     0.041 C 
BRANCH  17  18
ATOM     18  C   UNL     1      -0.759   2.205   1.287  1.00  0.00     0.002 C 
ATOM     19  C   UNL     1      -0.557   2.994   2.572  1.00  0.00     0.004 C 
ENDBRANCH  17  18
ENDBRANCH   1  17
BRANCH  15  20
ATOM     20  C   UNL     1       2.516   0.794   0.313  1.00  0.00     0.119 C 
ATOM     21  C   UNL     1       3.022   1.155  -1.081  1.00  0.00     0.027 C 
ENDBRANCH  15  20
BRANCH   4  22
ATOM     22  C   UNL     1      -5.181   0.886  -0.178  1.00  0.00     0.371 C 
ATOM     23  O   UNL     1      -6.307   0.850  -0.642  1.00  0.00    -0.243 OA
BRANCH  22  24
ATOM     24  O   UNL     1      -4.893   1.642   0.896  1.00  0.00    -0.475 OA
ATOM     25  H   UNL     1      -5.745   2.066   1.128  1.00  0.00     0.297 HD
ENDBRANCH  22  24
ENDBRANCH   4  22
BRANCH  14  26
ATOM     26  C   UNL     1       4.136  -1.668   1.182  1.00  0.00     0.352 C 
ATOM     27  O   UNL     1       4.288  -0.957   2.162  1.00  0.00    -0.245 OA
BRANCH  26  28
ATOM     28  O   UNL     1       5.080  -2.567   0.849  1.00  0.00    -0.477 OA
ATOM     29  H   UNL     1       5.760  -2.458   1.547  1.00  0.00     0.297 HD
ENDBRANCH  26  28
ENDBRANCH  14  26
TORSDOF 7
