REMARK SMILES O=C1NC(c2ccccc2)(c2ccccc2)C(=O)N1COP(=O)(O)O
REMARK SMILES IDX 20 1 19 2 1 3 2 4 3 5 4 6 17 8 18 9 5 10 6 11 10 12 7 13
REMARK SMILES IDX 9 14 8 15 11 16 12 17 16 18 13 19 15 20 14 21 21 22 22 23
REMARK SMILES IDX 23 24 24 25 25 27
REMARK H PARENT 3 7 24 26 25 28
REMARK Flexibility Score: inf
ROOT
ATOM      1  C   UNL     1       3.073  -0.074  -1.374  1.00  0.00     0.306 C 
ENDROOT
BRANCH   1   2
ATOM      2  N   UNL     1       1.742   0.288  -0.987  1.00  0.00    -0.237 N 
ATOM      3  O   UNL     1       1.889   2.574  -1.257  1.00  0.00    -0.248 OA
ATOM      4  C   UNL     1       1.283   1.562  -0.949  1.00  0.00     0.327 C 
ATOM      5  N   UNL     1      -0.024   1.552  -0.542  1.00  0.00    -0.315 N 
ATOM      6  C   UNL     1      -0.555   0.214  -0.356  1.00  0.00     0.172 C 
ATOM      7  H   UNL     1      -0.569   2.400  -0.504  1.00  0.00     0.167 HD
ATOM      8  C   UNL     1       0.722  -0.592  -0.752  1.00  0.00     0.267 C 
ATOM      9  O   UNL     1       0.810  -1.813  -0.839  1.00  0.00    -0.271 OA
BRANCH   6  10
ATOM     10  C   UNL     1      -1.749   0.055  -1.311  1.00  0.00    -0.008 A 
ATOM     11  C   UNL     1      -2.922   0.804  -1.076  1.00  0.00     0.007 A 
ATOM     12  C   UNL     1      -1.730  -0.795  -2.430  1.00  0.00     0.007 A 
ATOM     13  C   UNL     1      -4.028   0.703  -1.923  1.00  0.00     0.000 A 
ATOM     14  C   UNL     1      -2.838  -0.894  -3.276  1.00  0.00     0.000 A 
ATOM     15  C   UNL     1      -3.985  -0.146  -3.024  1.00  0.00     0.000 A 
ENDBRANCH   6  10
BRANCH   6  16
ATOM     16  C   UNL     1      -0.891  -0.089   1.113  1.00  0.00    -0.008 A 
ATOM     17  C   UNL     1      -0.436   0.725   2.167  1.00  0.00     0.007 A 
ATOM     18  C   UNL     1      -1.628  -1.243   1.445  1.00  0.00     0.007 A 
ATOM     19  C   UNL     1      -0.734   0.413   3.496  1.00  0.00     0.000 A 
ATOM     20  C   UNL     1      -1.926  -1.551   2.774  1.00  0.00     0.000 A 
ATOM     21  C   UNL     1      -1.483  -0.720   3.799  1.00  0.00     0.000 A 
ENDBRANCH   6  16
ENDBRANCH   1   2
BRANCH   1  22
ATOM     22  O   UNL     1       3.695  -0.815  -0.345  1.00  0.00    -0.265 OA
BRANCH  22  23
ATOM     23  P   UNL     1       4.237   0.007   0.906  1.00  0.00     0.471 P 
ATOM     24  O   UNL     1       3.282   0.883   1.637  1.00  0.00    -0.228 OA
BRANCH  23  25
ATOM     25  O   UNL     1       4.835  -1.132   1.854  1.00  0.00    -0.303 OA
ATOM     26  H   UNL     1       4.140  -1.464   2.454  1.00  0.00     0.223 HD
ENDBRANCH  23  25
BRANCH  23  27
ATOM     27  O   UNL     1       5.595   0.678   0.411  1.00  0.00    -0.303 OA
ATOM     28  H   UNL     1       6.315   0.022   0.419  1.00  0.00     0.223 HD
ENDBRANCH  23  27
ENDBRANCH  22  23
ENDBRANCH   1  22
TORSDOF 7
