REMARK SMILES O=[N+]([O-])c1cncn1CCN1CCOCC1
REMARK SMILES IDX 9 1 8 2 4 3 5 4 6 5 7 6 2 7 1 8 3 9 10 10 11 11 12 12 16 13
REMARK SMILES IDX 13 14 15 15 14 16
REMARK H PARENT
REMARK Flexibility Score: inf
ROOT
ATOM      1  C   UNL     1       1.343  -0.298  -1.353  1.00  0.00     0.260 C 
ENDROOT
BRANCH   1   2
ATOM      2  N   UNL     1       2.240  -0.676  -0.275  1.00  0.00    -0.212 N 
ATOM      3  C   UNL     1       2.584  -0.011   0.869  1.00  0.00     0.342 A 
ATOM      4  C   UNL     1       3.358  -0.875   1.602  1.00  0.00     0.218 A 
ATOM      5  N   UNL     1       3.543  -2.047   0.911  1.00  0.00    -0.216 NA
ATOM      6  C   UNL     1       2.867  -1.899  -0.207  1.00  0.00     0.316 A 
BRANCH   3   7
ATOM      7  N   UNL     1       2.192   1.306   1.207  1.00  0.00    -0.026 N 
ATOM      8  O   UNL     1       2.127   2.131   0.289  1.00  0.00    -0.358 OA
ATOM      9  O   UNL     1       1.997   1.535   2.406  1.00  0.00    -0.358 OA
ENDBRANCH   3   7
ENDBRANCH   1   2
BRANCH   1  10
ATOM     10  C   UNL     1      -0.101  -0.773  -1.113  1.00  0.00     0.131 C 
BRANCH  10  11
ATOM     11  N   UNL     1      -0.792  -0.033  -0.045  1.00  0.00    -0.295 NA
ATOM     12  C   UNL     1      -1.198   1.325  -0.490  1.00  0.00     0.113 C 
ATOM     13  C   UNL     1      -1.969  -0.769   0.477  1.00  0.00     0.113 C 
ATOM     14  C   UNL     1      -2.384   1.870   0.321  1.00  0.00     0.175 C 
ATOM     15  C   UNL     1      -3.306  -0.295  -0.114  1.00  0.00     0.175 C 
ATOM     16  O   UNL     1      -3.574   1.091   0.132  1.00  0.00    -0.379 OA
ENDBRANCH  10  11
ENDBRANCH   1  10
TORSDOF 4
