REMARK SMILES Nc1ncc(-c2ccncc2)nc1Nc1ccc2[nH]ccc2c1
REMARK SMILES IDX 2 1 13 2 12 3 5 4 4 5 3 6 1 7 14 10 15 12 16 13 23 14 17 15
REMARK SMILES IDX 22 16 18 17 21 18 19 19 20 20 6 22 7 23 11 24 8 25 10 26
REMARK SMILES IDX 9 27
REMARK H PARENT 1 8 1 9 14 11 19 21
REMARK Flexibility Score: inf
ROOT
ATOM      1  C   UNL     1       1.254   2.562  -1.816  1.00  0.00     0.166 A 
ATOM      2  C   UNL     1       0.572   1.545  -1.092  1.00  0.00     0.173 A 
ATOM      3  N   UNL     1       1.256   0.669  -0.320  1.00  0.00    -0.225 NA
ATOM      4  C   UNL     1       2.606   0.804  -0.249  1.00  0.00     0.091 A 
ATOM      5  C   UNL     1       3.239   1.831  -0.945  1.00  0.00     0.142 A 
ATOM      6  N   UNL     1       2.587   2.721  -1.731  1.00  0.00    -0.234 NA
ENDROOT
BRANCH   1   7
ATOM      7  N   UNL     1       0.556   3.478  -2.628  1.00  0.00    -0.381 N 
ATOM      8  H   UNL     1      -0.039   2.945  -3.261  1.00  0.00     0.158 HD
ATOM      9  H   UNL     1      -0.036   4.066  -2.054  1.00  0.00     0.158 HD
ENDBRANCH   1   7
BRANCH   2  10
ATOM     10  N   UNL     1      -0.843   1.460  -1.212  1.00  0.00    -0.337 N 
ATOM     11  H   UNL     1      -1.240   2.376  -1.037  1.00  0.00     0.168 HD
BRANCH  10  12
ATOM     12  C   UNL     1      -1.702   0.429  -0.763  1.00  0.00     0.040 A 
ATOM     13  C   UNL     1      -1.296  -0.908  -0.678  1.00  0.00     0.028 A 
ATOM     14  C   UNL     1      -3.053   0.738  -0.512  1.00  0.00     0.036 A 
ATOM     15  C   UNL     1      -2.172  -1.932  -0.291  1.00  0.00     0.029 A 
ATOM     16  C   UNL     1      -3.957  -0.270  -0.118  1.00  0.00     0.001 A 
ATOM     17  C   UNL     1      -3.494  -1.580  -0.013  1.00  0.00     0.045 A 
ATOM     18  C   UNL     1      -5.339  -0.286   0.219  1.00  0.00     0.028 A 
ATOM     19  N   UNL     1      -4.560  -2.357   0.379  1.00  0.00    -0.361 N 
ATOM     20  C   UNL     1      -5.681  -1.584   0.522  1.00  0.00     0.083 A 
ATOM     21  H   UNL     1      -4.515  -3.355   0.533  1.00  0.00     0.166 HD
ENDBRANCH  10  12
ENDBRANCH   2  10
BRANCH   4  22
ATOM     22  C   UNL     1       3.309  -0.177   0.600  1.00  0.00     0.005 A 
ATOM     23  C   UNL     1       4.656  -0.515   0.411  1.00  0.00     0.030 A 
ATOM     24  C   UNL     1       2.632  -0.831   1.643  1.00  0.00     0.030 A 
ATOM     25  C   UNL     1       5.250  -1.448   1.251  1.00  0.00     0.111 A 
ATOM     26  C   UNL     1       3.309  -1.749   2.430  1.00  0.00     0.111 A 
ATOM     27  N   UNL     1       4.607  -2.068   2.259  1.00  0.00    -0.265 NA
ENDBRANCH   4  22
TORSDOF 4
