REMARK SMILES C[C@@H](NC(=O)c1ncnc(N)c1Cl)c1ncc(C(=O)Nc2cc(C(F)(F)F)c(Cl)cn2)s1
REMARK SMILES IDX 1 1 2 2 3 3 4 4 5 6 6 7 12 8 7 9 13 10 10 11 8 12 9 13 11 14
REMARK SMILES IDX 14 17 15 18 32 19 16 20 17 21 18 22 19 23 20 24 21 26 31 27
REMARK SMILES IDX 22 28 30 29 23 30 28 31 29 32 24 33 25 34 26 35 27 36
REMARK H PARENT 3 5 11 15 11 16 20 25
REMARK Flexibility Score: inf
ROOT
ATOM      1  C   UNL     1       2.677  -1.644   2.472  1.00  0.00     0.039 C 
ATOM      2  C   UNL     1       2.407  -0.344   1.715  1.00  0.00     0.139 C 
ENDROOT
BRANCH   2   3
ATOM      3  N   UNL     1       3.330  -0.193   0.603  1.00  0.00    -0.342 N 
ATOM      4  C   UNL     1       4.637   0.217   0.757  1.00  0.00     0.272 C 
ATOM      5  H   UNL     1       3.044  -0.540  -0.311  1.00  0.00     0.164 HD
ATOM      6  O   UNL     1       5.088   0.557   1.842  1.00  0.00    -0.267 OA
BRANCH   4   7
ATOM      7  C   UNL     1       5.444   0.179  -0.516  1.00  0.00     0.152 A 
ATOM      8  C   UNL     1       6.738   0.659  -0.609  1.00  0.00     0.114 A 
ATOM      9  N   UNL     1       4.771  -0.391  -1.561  1.00  0.00    -0.229 NA
ATOM     10  Cl  UNL     1       7.626   1.392   0.676  1.00  0.00    -0.078 Cl
ATOM     11  C   UNL     1       7.327   0.502  -1.860  1.00  0.00     0.146 A 
ATOM     12  C   UNL     1       5.444  -0.473  -2.710  1.00  0.00     0.225 A 
ATOM     13  N   UNL     1       6.697  -0.054  -2.910  1.00  0.00    -0.218 NA
BRANCH  11  14
ATOM     14  N   UNL     1       8.611   0.977  -2.144  1.00  0.00    -0.382 N 
ATOM     15  H   UNL     1       9.290   0.722  -1.435  1.00  0.00     0.158 HD
ATOM     16  H   UNL     1       8.873   0.682  -3.080  1.00  0.00     0.158 HD
ENDBRANCH  11  14
ENDBRANCH   4   7
ENDBRANCH   2   3
BRANCH   2  17
ATOM     17  C   UNL     1       1.004  -0.340   1.153  1.00  0.00     0.115 A 
ATOM     18  N   UNL     1       0.661  -0.874  -0.005  1.00  0.00    -0.247 NA
ATOM     19  S   UNL     1      -0.277   0.403   2.024  1.00  0.00    -0.111 S 
ATOM     20  C   UNL     1      -0.691  -0.686  -0.221  1.00  0.00     0.137 A 
ATOM     21  C   UNL     1      -1.381  -0.024   0.777  1.00  0.00     0.112 A 
BRANCH  21  22
ATOM     22  C   UNL     1      -2.785   0.342   0.893  1.00  0.00     0.268 C 
ATOM     23  O   UNL     1      -3.187   1.166   1.709  1.00  0.00    -0.268 OA
ATOM     24  N   UNL     1      -3.619  -0.329   0.023  1.00  0.00    -0.306 N 
ATOM     25  H   UNL     1      -3.252  -1.068  -0.559  1.00  0.00     0.171 HD
BRANCH  24  26
ATOM     26  C   UNL     1      -4.998  -0.198  -0.132  1.00  0.00     0.133 A 
ATOM     27  N   UNL     1      -5.509  -1.072  -1.023  1.00  0.00    -0.238 NA
ATOM     28  C   UNL     1      -5.792   0.726   0.534  1.00  0.00     0.061 A 
ATOM     29  C   UNL     1      -6.845  -1.030  -1.248  1.00  0.00     0.134 A 
ATOM     30  C   UNL     1      -7.179   0.760   0.288  1.00  0.00     0.079 A 
ATOM     31  C   UNL     1      -7.713  -0.145  -0.626  1.00  0.00     0.071 A 
ATOM     32  Cl  UNL     1      -9.387  -0.213  -1.016  1.00  0.00    -0.082 Cl
BRANCH  30  33
ATOM     33  C   UNL     1      -8.047   1.754   1.005  1.00  0.00     0.418 C 
ATOM     34  F   UNL     1      -8.698   2.596   0.157  1.00  0.00    -0.166 F 
ATOM     35  F   UNL     1      -7.351   2.562   1.853  1.00  0.00    -0.166 F 
ATOM     36  F   UNL     1      -9.004   1.163   1.771  1.00  0.00    -0.166 F 
ENDBRANCH  30  33
ENDBRANCH  24  26
ENDBRANCH  21  22
ENDBRANCH   2  17
TORSDOF 7
