REMARK SMILES NNC(=O)c1ccncc1
REMARK SMILES IDX 2 1 3 2 4 3 1 5 5 8 6 9 10 10 7 11 9 12 8 13
REMARK H PARENT 2 4 1 6 1 7
REMARK Flexibility Score: inf
ROOT
ATOM      1  N   UNL     1       1.983  -0.635   0.147  1.00  0.00    -0.290 N 
ATOM      2  C   UNL     1       1.168   0.448  -0.162  1.00  0.00     0.265 C 
ATOM      3  O   UNL     1       1.610   1.564  -0.423  1.00  0.00    -0.268 OA
ATOM      4  H   UNL     1       1.598  -1.469   0.584  1.00  0.00     0.184 HD
ENDROOT
BRANCH   1   5
ATOM      5  N   UNL     1       3.380  -0.434   0.230  1.00  0.00    -0.248 NA
ATOM      6  H   UNL     1       3.735  -0.381  -0.731  1.00  0.00     0.143 HD
ATOM      7  H   UNL     1       3.522   0.524   0.576  1.00  0.00     0.143 HD
ENDBRANCH   1   5
BRANCH   2   8
ATOM      8  C   UNL     1      -0.299   0.210  -0.126  1.00  0.00     0.044 A 
ATOM      9  C   UNL     1      -0.853  -1.053  -0.339  1.00  0.00     0.034 A 
ATOM     10  C   UNL     1      -1.137   1.302   0.101  1.00  0.00     0.034 A 
ATOM     11  C   UNL     1      -2.232  -1.169  -0.292  1.00  0.00     0.112 A 
ATOM     12  C   UNL     1      -2.501   1.080   0.131  1.00  0.00     0.112 A 
ATOM     13  N   UNL     1      -3.064  -0.133  -0.054  1.00  0.00    -0.265 NA
ENDBRANCH   2   8
TORSDOF 2
