REMARK SMILES CC(CN(C)C)CN1c2ccccc2Sc2ccccc21
REMARK SMILES IDX 1 1 2 2 3 3 4 4 5 5 6 6 7 7 8 8 9 9 21 10 10 11 14 12 16 13
REMARK SMILES IDX 20 14 11 15 13 16 15 17 17 18 19 19 12 20 18 21
REMARK H PARENT
REMARK Flexibility Score: inf
ROOT
ATOM      1  C   UNL     1      -1.351  -0.371   1.689  1.00  0.00     0.011 C 
ATOM      2  C   UNL     1      -1.267   0.453   0.404  1.00  0.00     0.020 C 
ENDROOT
BRANCH   2   3
ATOM      3  C   UNL     1      -2.646   0.626  -0.276  1.00  0.00     0.089 C 
BRANCH   3   4
ATOM      4  N   UNL     1      -3.194  -0.627  -0.825  1.00  0.00    -0.309 NA
ATOM      5  C   UNL     1      -4.226  -1.191   0.052  1.00  0.00     0.104 C 
ATOM      6  C   UNL     1      -3.765  -0.408  -2.157  1.00  0.00     0.104 C 
ENDBRANCH   3   4
ENDBRANCH   2   3
BRANCH   2   7
ATOM      7  C   UNL     1      -0.233  -0.107  -0.606  1.00  0.00     0.127 C 
BRANCH   7   8
ATOM      8  N   UNL     1       1.173   0.075  -0.149  1.00  0.00    -0.339 N 
ATOM      9  C   UNL     1       1.754   1.367  -0.363  1.00  0.00     0.055 A 
ATOM     10  C   UNL     1       1.843  -1.049   0.425  1.00  0.00     0.055 A 
ATOM     11  C   UNL     1       1.042   2.435  -0.963  1.00  0.00     0.027 A 
ATOM     12  C   UNL     1       3.081   1.659   0.012  1.00  0.00     0.036 A 
ATOM     13  C   UNL     1       3.181  -0.971   0.867  1.00  0.00     0.036 A 
ATOM     14  C   UNL     1       1.223  -2.310   0.597  1.00  0.00     0.027 A 
ATOM     15  C   UNL     1       1.601   3.702  -1.178  1.00  0.00     0.002 A 
ATOM     16  C   UNL     1       3.640   2.937  -0.206  1.00  0.00     0.017 A 
ATOM     17  S   UNL     1       4.175   0.495   0.780  1.00  0.00    -0.086 SA
ATOM     18  C   UNL     1       3.837  -2.088   1.429  1.00  0.00     0.017 A 
ATOM     19  C   UNL     1       1.877  -3.417   1.157  1.00  0.00     0.002 A 
ATOM     20  C   UNL     1       2.905   3.955  -0.799  1.00  0.00     0.001 A 
ATOM     21  C   UNL     1       3.190  -3.307   1.574  1.00  0.00     0.001 A 
ENDBRANCH   7   8
ENDBRANCH   2   7
TORSDOF 4
