REMARK SMILES CN(C)CC[C@@H](c1ccc(Cl)cc1)c1ccccn1
REMARK SMILES IDX 5 1 4 2 2 3 1 4 3 5 6 6 7 7 8 8 13 9 9 10 12 11 10 12 11 13
REMARK SMILES IDX 14 14 15 15 19 16 16 17 18 18 17 19
REMARK H PARENT
REMARK Flexibility Score: inf
ROOT
ATOM      1  C   UNL     1       1.055  -0.397   0.155  1.00  0.00     0.030 C 
ENDROOT
BRANCH   1   2
ATOM      2  C   UNL     1       1.823   0.476   1.162  1.00  0.00     0.085 C 
BRANCH   2   3
ATOM      3  N   UNL     1       3.284   0.547   0.999  1.00  0.00    -0.309 NA
ATOM      4  C   UNL     1       3.678   1.168  -0.263  1.00  0.00     0.104 C 
ATOM      5  C   UNL     1       3.942  -0.744   1.173  1.00  0.00     0.104 C 
ENDBRANCH   2   3
ENDBRANCH   1   2
BRANCH   1   6
ATOM      6  C   UNL     1      -0.462  -0.455   0.466  1.00  0.00     0.069 C 
BRANCH   6   7
ATOM      7  C   UNL     1      -1.141   0.904   0.315  1.00  0.00    -0.039 A 
ATOM      8  C   UNL     1      -1.686   1.549   1.437  1.00  0.00     0.006 A 
ATOM      9  C   UNL     1      -1.231   1.535  -0.938  1.00  0.00     0.006 A 
ATOM     10  C   UNL     1      -2.304   2.795   1.309  1.00  0.00     0.021 A 
ATOM     11  C   UNL     1      -1.850   2.780  -1.065  1.00  0.00     0.021 A 
ATOM     12  C   UNL     1      -2.383   3.405   0.059  1.00  0.00     0.041 A 
ATOM     13  Cl  UNL     1      -3.147   4.939  -0.097  1.00  0.00    -0.084 Cl
ENDBRANCH   6   7
BRANCH   6  14
ATOM     14  C   UNL     1      -1.173  -1.532  -0.355  1.00  0.00     0.048 A 
ATOM     15  C   UNL     1      -2.341  -2.117   0.136  1.00  0.00     0.024 A 
ATOM     16  N   UNL     1      -0.662  -1.859  -1.571  1.00  0.00    -0.261 NA
ATOM     17  C   UNL     1      -2.995  -3.076  -0.633  1.00  0.00     0.003 A 
ATOM     18  C   UNL     1      -1.318  -2.793  -2.295  1.00  0.00     0.111 A 
ATOM     19  C   UNL     1      -2.475  -3.424  -1.872  1.00  0.00     0.020 A 
ENDBRANCH   6  14
ENDBRANCH   1   6
TORSDOF 5
