REMARK SMILES CN[C@@H]1CCc2[nH]c3ccc(C(N)=O)cc3c2C1
REMARK SMILES IDX 3 1 4 2 5 3 6 4 7 5 8 6 9 7 10 8 11 9 15 10 16 11 17 12
REMARK SMILES IDX 18 13 2 15 1 16 12 18 13 19 14 20
REMARK H PARENT 7 14 2 17 13 21 13 22
REMARK Flexibility Score: inf
ROOT
ATOM      1  C   UNL     1      -2.485   0.658   0.064  1.00  0.00     0.058 C 
ATOM      2  C   UNL     1      -2.885  -0.602   0.878  1.00  0.00     0.025 C 
ATOM      3  C   UNL     1      -2.119  -1.859   0.418  1.00  0.00     0.056 C 
ATOM      4  C   UNL     1      -0.686  -1.532   0.200  1.00  0.00     0.019 A 
ATOM      5  N   UNL     1       0.314  -2.448   0.032  1.00  0.00    -0.358 N 
ATOM      6  C   UNL     1       1.512  -1.795  -0.173  1.00  0.00     0.046 A 
ATOM      7  C   UNL     1       2.790  -2.317  -0.399  1.00  0.00     0.027 A 
ATOM      8  C   UNL     1       3.838  -1.407  -0.574  1.00  0.00     0.016 A 
ATOM      9  C   UNL     1       3.618  -0.027  -0.515  1.00  0.00     0.040 A 
ATOM     10  C   UNL     1       2.324   0.477  -0.303  1.00  0.00     0.024 A 
ATOM     11  C   UNL     1       1.254  -0.422  -0.126  1.00  0.00     0.004 A 
ATOM     12  C   UNL     1      -0.142  -0.270   0.102  1.00  0.00    -0.018 A 
ATOM     13  C   UNL     1      -0.967   0.965   0.252  1.00  0.00     0.057 C 
ATOM     14  H   UNL     1       0.203  -3.452   0.047  1.00  0.00     0.166 HD
ENDROOT
BRANCH   1  15
ATOM     15  N   UNL     1      -3.266   1.849   0.455  1.00  0.00    -0.317 NA
ATOM     16  C   UNL     1      -4.657   1.781   0.022  1.00  0.00     0.101 C 
ATOM     17  H   UNL     1      -2.842   2.676   0.032  1.00  0.00     0.122 HD
ENDBRANCH   1  15
BRANCH   9  18
ATOM     18  C   UNL     1       4.784   0.877  -0.703  1.00  0.00     0.248 C 
ATOM     19  N   UNL     1       4.697   2.137  -0.176  1.00  0.00    -0.366 N 
ATOM     20  O   UNL     1       5.804   0.507  -1.272  1.00  0.00    -0.270 OA
ATOM     21  H   UNL     1       5.552   2.678  -0.196  1.00  0.00     0.159 HD
ATOM     22  H   UNL     1       4.021   2.366   0.539  1.00  0.00     0.159 HD
ENDBRANCH   9  18
TORSDOF 2
