REMARK SMILES C[C@@H]1CCO[C@H]2Cn3cc(C(=O)NCc4ccc(F)cc4F)c(=O)c(O)c3C(=O)N12
REMARK SMILES IDX 11 1 12 2 13 3 10 5 1 6 2 7 3 8 30 9 4 10 6 11 28 12 5 13
REMARK SMILES IDX 7 14 27 15 29 16 8 17 25 18 9 19 23 20 24 21 26 22 14 24
REMARK SMILES IDX 15 25 16 26 21 27 17 28 20 29 22 30 18 31 19 32
REMARK H PARENT 13 4 26 23
REMARK Flexibility Score: inf
ROOT
ATOM      1  C   UNL     1       2.439  -1.058   0.830  1.00  0.00     0.257 C 
ATOM      2  O   UNL     1       2.636  -1.395   1.995  1.00  0.00    -0.269 OA
ATOM      3  N   UNL     1       3.442  -0.940  -0.093  1.00  0.00    -0.348 N 
ATOM      4  H   UNL     1       3.185  -0.760  -1.065  1.00  0.00     0.164 HD
ENDROOT
BRANCH   1   5
ATOM      5  C   UNL     1       1.069  -0.744   0.334  1.00  0.00     0.107 C 
ATOM      6  C   UNL     1      -5.579   2.021  -0.096  1.00  0.00     0.031 C 
ATOM      7  C   UNL     1      -5.368   0.506  -0.010  1.00  0.00     0.087 C 
ATOM      8  C   UNL     1      -6.284  -0.144   1.031  1.00  0.00     0.053 C 
ATOM      9  N   UNL     1      -3.970   0.180   0.258  1.00  0.00    -0.307 N 
ATOM     10  C   UNL     1      -5.509  -0.600   2.256  1.00  0.00     0.165 C 
ATOM     11  C   UNL     1      -3.463   0.425   1.598  1.00  0.00     0.237 C 
ATOM     12  C   UNL     1      -3.072   0.063  -0.794  1.00  0.00     0.276 C 
ATOM     13  O   UNL     1      -4.505   0.356   2.572  1.00  0.00    -0.356 OA
ATOM     14  C   UNL     1      -2.311  -0.530   1.943  1.00  0.00     0.177 C 
ATOM     15  C   UNL     1      -1.617  -0.201  -0.430  1.00  0.00     0.153 C 
ATOM     16  O   UNL     1      -3.412   0.149  -1.975  1.00  0.00    -0.267 OA
ATOM     17  N   UNL     1      -1.265  -0.447   0.910  1.00  0.00    -0.335 N 
ATOM     18  C   UNL     1      -0.711  -0.187  -1.436  1.00  0.00     0.194 C 
ATOM     19  C   UNL     1       0.058  -0.731   1.216  1.00  0.00     0.104 C 
ATOM     20  C   UNL     1       0.730  -0.447  -1.084  1.00  0.00     0.236 C 
ATOM     21  O   UNL     1       1.609  -0.423  -1.945  1.00  0.00    -0.285 OA
BRANCH  18  22
ATOM     22  O   UNL     1      -0.998   0.044  -2.773  1.00  0.00    -0.503 OA
ATOM     23  H   UNL     1      -1.971   0.136  -2.873  1.00  0.00     0.293 HD
ENDBRANCH  18  22
ENDBRANCH   1   5
BRANCH   3  24
ATOM     24  C   UNL     1       4.804  -1.334   0.183  1.00  0.00     0.155 C 
BRANCH  24  25
ATOM     25  C   UNL     1       5.776  -0.411  -0.495  1.00  0.00     0.007 A 
ATOM     26  C   UNL     1       5.976   0.891  -0.008  1.00  0.00     0.011 A 
ATOM     27  C   UNL     1       6.489  -0.822  -1.626  1.00  0.00     0.131 A 
ATOM     28  C   UNL     1       6.876   1.749  -0.643  1.00  0.00     0.040 A 
ATOM     29  C   UNL     1       7.385   0.027  -2.265  1.00  0.00     0.078 A 
ATOM     30  F   UNL     1       6.316  -2.059  -2.113  1.00  0.00    -0.207 F 
ATOM     31  C   UNL     1       7.570   1.308  -1.766  1.00  0.00     0.126 A 
ATOM     32  F   UNL     1       8.434   2.133  -2.371  1.00  0.00    -0.207 F 
ENDBRANCH  24  25
ENDBRANCH   3  24
TORSDOF 4
