REMARK SMILES CN1CCN(c2ccc(Nc3ncc4cc5n(c4n3)C3(CCCCC3)CNC5=O)nc2)CC1
REMARK SMILES IDX 6 1 7 2 8 3 9 4 30 5 31 6 5 7 1 8 2 9 3 10 33 11 4 12 32 13
REMARK SMILES IDX 10 14 11 16 12 17 19 18 13 19 18 20 14 21 17 22 15 23 16 24
REMARK SMILES IDX 20 25 28 26 21 27 26 28 25 29 27 30 29 31 22 32 24 33 23 35
REMARK H PARENT 10 15 27 34
REMARK Flexibility Score: inf
ROOT
ATOM      1  C   UNL     1       4.160  -0.706  -0.731  1.00  0.00     0.055 A 
ATOM      2  C   UNL     1       3.430  -1.157  -1.833  1.00  0.00     0.031 A 
ATOM      3  C   UNL     1       2.052  -1.381  -1.743  1.00  0.00     0.049 A 
ATOM      4  C   UNL     1       1.389  -1.154  -0.540  1.00  0.00     0.132 A 
ATOM      5  N   UNL     1       2.063  -0.726   0.541  1.00  0.00    -0.237 NA
ATOM      6  C   UNL     1       3.403  -0.531   0.429  1.00  0.00     0.139 A 
ENDROOT
BRANCH   1   7
ATOM      7  N   UNL     1       5.544  -0.504  -0.827  1.00  0.00    -0.368 N 
ATOM      8  C   UNL     1       8.218   2.009  -0.362  1.00  0.00     0.105 C 
ATOM      9  N   UNL     1       8.290   0.634  -0.849  1.00  0.00    -0.303 NA
ATOM     10  C   UNL     1       7.489   0.446  -2.078  1.00  0.00     0.105 C 
ATOM     11  C   UNL     1       7.826  -0.334   0.169  1.00  0.00     0.105 C 
ATOM     12  C   UNL     1       5.952   0.450  -1.886  1.00  0.00     0.132 C 
ATOM     13  C   UNL     1       6.301  -0.337   0.432  1.00  0.00     0.132 C 
ENDBRANCH   1   7
BRANCH   4  14
ATOM     14  N   UNL     1       0.004  -1.385  -0.503  1.00  0.00    -0.309 N 
ATOM     15  H   UNL     1      -0.479  -0.883  -1.233  1.00  0.00     0.171 HD
BRANCH  14  16
ATOM     16  C   UNL     1      -0.818  -1.334   0.624  1.00  0.00     0.230 A 
ATOM     17  N   UNL     1      -0.411  -1.863   1.793  1.00  0.00    -0.221 NA
ATOM     18  N   UNL     1      -2.031  -0.793   0.401  1.00  0.00    -0.194 NA
ATOM     19  C   UNL     1      -1.236  -1.833   2.860  1.00  0.00     0.127 A 
ATOM     20  C   UNL     1      -2.822  -0.765   1.485  1.00  0.00     0.146 A 
ATOM     21  C   UNL     1      -2.499  -1.271   2.734  1.00  0.00     0.038 A 
ATOM     22  N   UNL     1      -4.091  -0.241   1.557  1.00  0.00    -0.313 N 
ATOM     23  C   UNL     1      -3.622  -1.085   3.571  1.00  0.00     0.045 A 
ATOM     24  C   UNL     1      -4.614  -0.479   2.820  1.00  0.00     0.109 A 
ATOM     25  C   UNL     1      -4.896   0.378   0.478  1.00  0.00     0.064 C 
ATOM     26  C   UNL     1      -5.964  -0.153   3.210  1.00  0.00     0.268 C 
ATOM     27  C   UNL     1      -5.498  -0.748  -0.401  1.00  0.00     0.031 C 
ATOM     28  C   UNL     1      -6.019   1.211   1.175  1.00  0.00     0.145 C 
ATOM     29  C   UNL     1      -4.074   1.352  -0.411  1.00  0.00     0.031 C 
ATOM     30  N   UNL     1      -6.687   0.509   2.250  1.00  0.00    -0.348 N 
ATOM     31  O   UNL     1      -6.469  -0.432   4.290  1.00  0.00    -0.268 OA
ATOM     32  C   UNL     1      -6.256  -0.233  -1.625  1.00  0.00     0.002 C 
ATOM     33  C   UNL     1      -4.865   1.880  -1.610  1.00  0.00     0.002 C 
ATOM     34  H   UNL     1      -7.579   0.846   2.593  1.00  0.00     0.163 HD
ATOM     35  C   UNL     1      -5.420   0.736  -2.453  1.00  0.00     0.000 C 
ENDBRANCH  14  16
ENDBRANCH   4  14
TORSDOF 3
