REMARK SMILES O=C1CC[C@@]2(O)[C@H]3Cc4ccc(O)c5c4[C@@]2(CCN3CC2CC2)[C@H]1O5
REMARK SMILES IDX 1 1 2 2 3 3 4 4 5 5 7 6 8 7 9 8 10 9 11 10 12 11 14 12 15 13
REMARK SMILES IDX 16 14 17 15 18 16 19 17 24 18 25 19 6 20 13 22 20 24 21 25
REMARK SMILES IDX 22 26 23 27
REMARK H PARENT 6 21 13 23
REMARK Flexibility Score: inf
ROOT
ATOM      1  O   UNL     1      -4.072  -2.854  -0.237  1.00  0.00    -0.295 OA
ATOM      2  C   UNL     1      -2.875  -2.564  -0.154  1.00  0.00     0.174 C 
ATOM      3  C   UNL     1      -1.881  -3.217  -1.086  1.00  0.00     0.083 C 
ATOM      4  C   UNL     1      -0.895  -2.193  -1.638  1.00  0.00     0.046 C 
ATOM      5  C   UNL     1      -0.125  -1.524  -0.494  1.00  0.00     0.095 C 
ATOM      6  C   UNL     1       0.874  -0.407  -0.955  1.00  0.00     0.094 C 
ATOM      7  C   UNL     1       0.154   0.823  -1.612  1.00  0.00     0.058 C 
ATOM      8  C   UNL     1      -1.185   1.161  -1.011  1.00  0.00    -0.038 A 
ATOM      9  C   UNL     1      -1.978   2.239  -1.405  1.00  0.00     0.008 A 
ATOM     10  C   UNL     1      -3.267   2.419  -0.853  1.00  0.00     0.050 A 
ATOM     11  C   UNL     1      -3.785   1.504   0.072  1.00  0.00     0.158 A 
ATOM     12  C   UNL     1      -3.002   0.435   0.440  1.00  0.00     0.166 A 
ATOM     13  C   UNL     1      -1.722   0.311  -0.062  1.00  0.00     0.015 A 
ATOM     14  C   UNL     1      -1.051  -0.875   0.539  1.00  0.00     0.075 C 
ATOM     15  C   UNL     1      -0.230  -0.414   1.765  1.00  0.00     0.035 C 
ATOM     16  C   UNL     1       0.975   0.457   1.366  1.00  0.00     0.086 C 
ATOM     17  N   UNL     1       1.738  -0.106   0.235  1.00  0.00    -0.297 NA
ATOM     18  C   UNL     1      -2.325  -1.631   0.942  1.00  0.00     0.253 C 
ATOM     19  O   UNL     1      -3.332  -0.618   1.262  1.00  0.00    -0.477 OA
ENDROOT
BRANCH   5  20
ATOM     20  O   UNL     1       0.632  -2.577   0.138  1.00  0.00    -0.387 OA
ATOM     21  H   UNL     1       1.436  -2.135   0.491  1.00  0.00     0.211 HD
ENDBRANCH   5  20
BRANCH  11  22
ATOM     22  O   UNL     1      -5.035   1.643   0.588  1.00  0.00    -0.504 OA
ATOM     23  H   UNL     1      -5.474   2.394   0.161  1.00  0.00     0.293 HD
ENDBRANCH  11  22
BRANCH  17  24
ATOM     24  C   UNL     1       2.887   0.739  -0.122  1.00  0.00     0.088 C 
BRANCH  24  25
ATOM     25  C   UNL     1       3.976   0.586   0.900  1.00  0.00     0.003 C 
ATOM     26  C   UNL     1       5.166   1.513   0.861  1.00  0.00     0.005 C 
ATOM     27  C   UNL     1       4.179   1.610   1.989  1.00  0.00     0.005 C 
ENDBRANCH  24  25
ENDBRANCH  17  24
TORSDOF 4
