REMARK SMILES CC1=NN(c2ccccc2)C(=O)C1
REMARK SMILES IDX 1 1 2 2 3 3 4 4 11 5 12 6 13 7 5 8 6 9 10 10 7 11 9 12 8 13
REMARK H PARENT
REMARK Flexibility Score: inf
ROOT
ATOM      1  C   UNL     1      -3.706   0.889   0.018  1.00  0.00     0.064 C 
ATOM      2  C   UNL     1      -2.419   0.144   0.094  1.00  0.00     0.045 C 
ATOM      3  N   UNL     1      -1.256   0.692  -0.068  1.00  0.00    -0.174 NA
ATOM      4  N   UNL     1      -0.325  -0.323   0.078  1.00  0.00    -0.201 N 
ATOM      5  C   UNL     1      -0.896  -1.578   0.345  1.00  0.00     0.253 C 
ATOM      6  O   UNL     1      -0.387  -2.672   0.527  1.00  0.00    -0.272 OA
ATOM      7  C   UNL     1      -2.373  -1.321   0.371  1.00  0.00     0.155 C 
ENDROOT
BRANCH   4   8
ATOM      8  C   UNL     1       1.051  -0.003  -0.052  1.00  0.00     0.068 A 
ATOM      9  C   UNL     1       2.054  -0.972   0.081  1.00  0.00     0.028 A 
ATOM     10  C   UNL     1       1.445   1.318  -0.323  1.00  0.00     0.028 A 
ATOM     11  C   UNL     1       3.406  -0.632  -0.051  1.00  0.00     0.002 A 
ATOM     12  C   UNL     1       2.795   1.659  -0.456  1.00  0.00     0.002 A 
ATOM     13  C   UNL     1       3.776   0.683  -0.320  1.00  0.00     0.000 A 
ENDBRANCH   4   8
TORSDOF 1
