REMARK SMILES CC(=O)c1c(C)c2cnc(Nc3ccc(N4CCNCC4)cn3)nc2n(C2CCCC2)c1=O
REMARK SMILES IDX 11 1 10 3 4 4 5 5 32 6 6 7 7 8 26 9 33 10 8 11 25 12 9 13
REMARK SMILES IDX 24 14 2 15 1 16 3 17 27 18 28 19 31 20 29 21 30 22 12 23
REMARK SMILES IDX 23 24 13 25 22 26 14 27 15 28 16 29 17 30 21 31 18 32 20 33
REMARK SMILES IDX 19 34
REMARK H PARENT 11 2 19 35
REMARK Flexibility Score: inf
ROOT
ATOM      1  N   UNL     1       0.802  -0.686  -0.253  1.00  0.00    -0.309 N 
ATOM      2  H   UNL     1       0.649  -1.533   0.271  1.00  0.00     0.171 HD
ENDROOT
BRANCH   1   3
ATOM      3  C   UNL     1      -0.351   0.057  -0.413  1.00  0.00     0.230 A 
ATOM      4  C   UNL     1      -5.077   1.618  -0.111  1.00  0.00     0.086 C 
ATOM      5  C   UNL     1      -3.984   2.194  -0.654  1.00  0.00    -0.022 C 
ATOM      6  C   UNL     1      -5.011   0.295   0.577  1.00  0.00     0.263 C 
ATOM      7  C   UNL     1      -3.968   3.558  -1.299  1.00  0.00     0.046 C 
ATOM      8  C   UNL     1      -2.715   1.447  -0.588  1.00  0.00     0.040 A 
ATOM      9  N   UNL     1      -3.799  -0.381   0.578  1.00  0.00    -0.289 N 
ATOM     10  O   UNL     1      -6.030  -0.135   1.114  1.00  0.00    -0.268 OA
ATOM     11  C   UNL     1      -1.519   1.901  -1.110  1.00  0.00     0.127 A 
ATOM     12  C   UNL     1      -2.627   0.204   0.016  1.00  0.00     0.148 A 
ATOM     13  N   UNL     1      -0.347   1.240  -1.032  1.00  0.00    -0.221 NA
ATOM     14  N   UNL     1      -1.464  -0.478   0.105  1.00  0.00    -0.194 NA
BRANCH   4  15
ATOM     15  C   UNL     1      -6.401   2.311  -0.188  1.00  0.00     0.165 C 
ATOM     16  C   UNL     1      -7.168   2.525   1.091  1.00  0.00     0.094 C 
ATOM     17  O   UNL     1      -6.836   2.706  -1.270  1.00  0.00    -0.294 OA
ENDBRANCH   4  15
BRANCH   9  18
ATOM     18  C   UNL     1      -3.675  -1.702   1.217  1.00  0.00     0.092 C 
ATOM     19  C   UNL     1      -3.890  -1.695   2.733  1.00  0.00     0.025 C 
ATOM     20  C   UNL     1      -4.655  -2.771   0.723  1.00  0.00     0.025 C 
ATOM     21  C   UNL     1      -4.222  -3.144   3.090  1.00  0.00     0.002 C 
ATOM     22  C   UNL     1      -4.525  -3.865   1.776  1.00  0.00     0.002 C 
ENDBRANCH   9  18
ENDBRANCH   1   3
BRANCH   1  23
ATOM     23  C   UNL     1       2.138  -0.482  -0.542  1.00  0.00     0.132 A 
ATOM     24  N   UNL     1       2.971  -1.438  -0.087  1.00  0.00    -0.237 NA
ATOM     25  C   UNL     1       2.633   0.605  -1.242  1.00  0.00     0.049 A 
ATOM     26  C   UNL     1       4.304  -1.293  -0.325  1.00  0.00     0.139 A 
ATOM     27  C   UNL     1       4.011   0.723  -1.468  1.00  0.00     0.031 A 
ATOM     28  C   UNL     1       4.912  -0.236  -1.003  1.00  0.00     0.055 A 
BRANCH  28  29
ATOM     29  N   UNL     1       6.276  -0.134  -1.200  1.00  0.00    -0.368 N 
ATOM     30  C   UNL     1       7.236  -0.934  -0.420  1.00  0.00     0.132 C 
ATOM     31  C   UNL     1       6.847   0.781  -2.203  1.00  0.00     0.132 C 
ATOM     32  C   UNL     1       8.578  -0.182  -0.266  1.00  0.00     0.102 C 
ATOM     33  C   UNL     1       8.269   0.340  -2.624  1.00  0.00     0.102 C 
ATOM     34  N   UNL     1       9.242   0.197  -1.527  1.00  0.00    -0.313 NA
ATOM     35  H   UNL     1       9.723   1.084  -1.379  1.00  0.00     0.122 HD
ENDBRANCH  28  29
ENDBRANCH   1  23
TORSDOF 5
