REMARK SMILES C[C@@H]1CN([C@H]2CC[C@](C#N)(c3ccc(F)cc3)CC2)CC[C@]1(C(=O)O)c1ccccc1
REMARK SMILES IDX 1 1 2 2 3 3 4 4 20 5 21 6 22 7 23 8 24 9 25 10 26 12 27 13
REMARK SMILES IDX 31 14 28 15 30 16 29 17 5 18 19 19 6 20 18 21 7 22 8 23 9 24
REMARK SMILES IDX 10 25 11 26 12 27 17 28 13 29 16 30 14 31 15 32
REMARK H PARENT 25 11
REMARK Flexibility Score: inf
ROOT
ATOM      1  C   UNL     1      -3.099   1.227  -1.912  1.00  0.00     0.010 C 
ATOM      2  C   UNL     1      -2.240   0.669  -0.768  1.00  0.00     0.022 C 
ATOM      3  C   UNL     1      -1.359  -0.484  -1.277  1.00  0.00     0.089 C 
ATOM      4  N   UNL     1      -0.399  -0.985  -0.288  1.00  0.00    -0.300 NA
ATOM      5  C   UNL     1      -0.793  -0.797   1.108  1.00  0.00     0.086 C 
ATOM      6  C   UNL     1      -2.310  -0.885   1.269  1.00  0.00     0.039 C 
ATOM      7  C   UNL     1      -3.032   0.296   0.546  1.00  0.00     0.098 C 
ENDROOT
BRANCH   7   8
ATOM      8  C   UNL     1      -2.906   1.516   1.490  1.00  0.00     0.314 C 
ATOM      9  O   UNL     1      -2.594   1.508   2.671  1.00  0.00    -0.251 OA
BRANCH   8  10
ATOM     10  O   UNL     1      -3.208   2.698   0.910  1.00  0.00    -0.481 OA
ATOM     11  H   UNL     1      -3.090   3.351   1.632  1.00  0.00     0.296 HD
ENDBRANCH   8  10
ENDBRANCH   7   8
BRANCH   7  12
ATOM     12  C   UNL     1      -4.508  -0.121   0.331  1.00  0.00    -0.030 A 
ATOM     13  C   UNL     1      -4.831  -1.225  -0.484  1.00  0.00     0.005 A 
ATOM     14  C   UNL     1      -5.580   0.552   0.946  1.00  0.00     0.005 A 
ATOM     15  C   UNL     1      -6.155  -1.624  -0.688  1.00  0.00     0.000 A 
ATOM     16  C   UNL     1      -6.905   0.153   0.742  1.00  0.00     0.000 A 
ATOM     17  C   UNL     1      -7.193  -0.934  -0.075  1.00  0.00     0.000 A 
ENDBRANCH   7  12
BRANCH   4  18
ATOM     18  C   UNL     1       1.010  -0.714  -0.616  1.00  0.00     0.056 C 
ATOM     19  C   UNL     1       1.374   0.786  -0.604  1.00  0.00     0.021 C 
ATOM     20  C   UNL     1       2.004  -1.557   0.218  1.00  0.00     0.021 C 
ATOM     21  C   UNL     1       2.891   0.981  -0.575  1.00  0.00     0.029 C 
ATOM     22  C   UNL     1       2.697  -0.740   1.311  1.00  0.00     0.029 C 
ATOM     23  C   UNL     1       3.540   0.445   0.740  1.00  0.00     0.082 C 
BRANCH  23  24
ATOM     24  C   UNL     1       3.490   1.524   1.773  1.00  0.00     0.074 C 
ATOM     25  N   UNL     1       3.434   2.377   2.559  1.00  0.00    -0.197 NA
ENDBRANCH  23  24
BRANCH  23  26
ATOM     26  C   UNL     1       5.015   0.104   0.417  1.00  0.00    -0.028 A 
ATOM     27  C   UNL     1       5.920   1.146   0.106  1.00  0.00     0.008 A 
ATOM     28  C   UNL     1       5.508  -1.214   0.378  1.00  0.00     0.008 A 
ATOM     29  C   UNL     1       7.255   0.881  -0.212  1.00  0.00     0.039 A 
ATOM     30  C   UNL     1       6.844  -1.477   0.058  1.00  0.00     0.039 A 
ATOM     31  C   UNL     1       7.704  -0.429  -0.233  1.00  0.00     0.123 A 
ATOM     32  F   UNL     1       8.982  -0.687  -0.541  1.00  0.00    -0.207 F 
ENDBRANCH  23  26
ENDBRANCH   4  18
TORSDOF 6
