REMARK SMILES Brc1c(NC2=NCCN2)ccc2nccnc12
REMARK SMILES IDX 1 1 2 2 3 3 10 4 11 5 12 6 13 7 14 8 15 9 16 10 17 11 4 12
REMARK SMILES IDX 5 13 6 15 9 16 7 17 8 18
REMARK H PARENT 4 14 9 19
REMARK Flexibility Score: inf
ROOT
ATOM      1  Br  UNL     1       1.410   1.745   2.267  1.00  0.00    -0.046 Br
ATOM      2  C   UNL     1       1.451   0.607   0.718  1.00  0.00     0.069 A 
ATOM      3  C   UNL     1       0.224   0.208   0.140  1.00  0.00     0.057 A 
ATOM      4  C   UNL     1       0.290  -0.594  -0.998  1.00  0.00     0.030 A 
ATOM      5  C   UNL     1       1.521  -1.008  -1.512  1.00  0.00     0.033 A 
ATOM      6  C   UNL     1       2.718  -0.629  -0.927  1.00  0.00     0.090 A 
ATOM      7  N   UNL     1       3.867  -1.066  -1.479  1.00  0.00    -0.253 NA
ATOM      8  C   UNL     1       5.013  -0.674  -0.887  1.00  0.00     0.132 A 
ATOM      9  C   UNL     1       5.018   0.135   0.225  1.00  0.00     0.132 A 
ATOM     10  N   UNL     1       3.877   0.583   0.788  1.00  0.00    -0.252 NA
ATOM     11  C   UNL     1       2.702   0.203   0.217  1.00  0.00     0.105 A 
ENDROOT
BRANCH   3  12
ATOM     12  N   UNL     1      -0.998   0.681   0.667  1.00  0.00    -0.325 N 
ATOM     13  C   UNL     1      -2.255   0.215   0.448  1.00  0.00     0.195 C 
ATOM     14  H   UNL     1      -0.882   1.154   1.556  1.00  0.00     0.170 HD
ATOM     15  N   UNL     1      -2.669  -0.750  -0.321  1.00  0.00    -0.251 NA
ATOM     16  N   UNL     1      -3.209   0.900   1.148  1.00  0.00    -0.354 N 
ATOM     17  C   UNL     1      -4.139  -0.796  -0.109  1.00  0.00     0.167 C 
ATOM     18  C   UNL     1      -4.501   0.487   0.638  1.00  0.00     0.139 C 
ATOM     19  H   UNL     1      -3.069   1.904   1.166  1.00  0.00     0.163 HD
ENDBRANCH   3  12
TORSDOF 1
