REMARK SMILES C[C@H](C(=O)O)c1ccc(-c2ccccc2)c(F)c1
REMARK SMILES IDX 1 1 2 2 3 3 4 4 5 5 6 7 7 8 18 9 8 10 16 11 9 12 17 13 10 14
REMARK SMILES IDX 11 15 15 16 12 17 14 18 13 19
REMARK H PARENT 5 6
REMARK Flexibility Score: inf
ROOT
ATOM      1  C   UNL     1       3.914  -1.370  -0.366  1.00  0.00     0.025 C 
ATOM      2  C   UNL     1       3.365   0.032  -0.093  1.00  0.00     0.126 C 
ENDROOT
BRANCH   2   3
ATOM      3  C   UNL     1       3.956   0.577   1.198  1.00  0.00     0.310 C 
ATOM      4  O   UNL     1       3.396   0.762   2.265  1.00  0.00    -0.252 OA
BRANCH   3   5
ATOM      5  O   UNL     1       5.271   0.865   1.077  1.00  0.00    -0.481 OA
ATOM      6  H   UNL     1       5.518   1.202   1.965  1.00  0.00     0.296 HD
ENDBRANCH   3   5
ENDBRANCH   2   3
BRANCH   2   7
ATOM      7  C   UNL     1       1.844   0.049  -0.113  1.00  0.00    -0.031 A 
ATOM      8  C   UNL     1       1.163   0.865  -1.027  1.00  0.00     0.005 A 
ATOM      9  C   UNL     1       1.084  -0.741   0.761  1.00  0.00     0.044 A 
ATOM     10  C   UNL     1      -0.238   0.888  -1.066  1.00  0.00     0.012 A 
ATOM     11  C   UNL     1      -0.311  -0.713   0.714  1.00  0.00     0.131 A 
ATOM     12  C   UNL     1      -1.006   0.098  -0.194  1.00  0.00     0.017 A 
ATOM     13  F   UNL     1      -0.982  -1.489   1.580  1.00  0.00    -0.206 F 
BRANCH  12  14
ATOM     14  C   UNL     1      -2.479   0.129  -0.247  1.00  0.00    -0.015 A 
ATOM     15  C   UNL     1      -3.230  -1.056  -0.329  1.00  0.00     0.009 A 
ATOM     16  C   UNL     1      -3.180   1.347  -0.224  1.00  0.00     0.009 A 
ATOM     17  C   UNL     1      -4.626  -1.025  -0.389  1.00  0.00     0.001 A 
ATOM     18  C   UNL     1      -4.576   1.380  -0.284  1.00  0.00     0.001 A 
ATOM     19  C   UNL     1      -5.298   0.193  -0.368  1.00  0.00     0.000 A 
ENDBRANCH  12  14
ENDBRANCH   2   7
TORSDOF 4
