REMARK SMILES CCOC(=O)[C@H](CCc1ccccc1)N[C@@H](C)C(=O)N1C(=O)N(C)C[C@H]1C(=O)O
REMARK SMILES IDX 16 1 17 2 15 3 6 5 4 6 5 7 3 8 2 9 1 10 7 11 8 12 9 13 10 14
REMARK SMILES IDX 14 15 11 16 13 17 12 18 18 19 19 20 20 21 21 22 26 23 22 24
REMARK SMILES IDX 23 25 25 26 24 27 27 28 28 29 29 30
REMARK H PARENT 15 4 29 31
REMARK Flexibility Score: inf
ROOT
ATOM      1  C   UNL     1       1.301   0.294   1.583  1.00  0.00     0.142 C 
ATOM      2  C   UNL     1       1.580   0.577   3.060  1.00  0.00     0.035 C 
ENDROOT
BRANCH   1   3
ATOM      3  N   UNL     1      -0.099  -0.181   1.463  1.00  0.00    -0.293 NA
ATOM      4  H   UNL     1      -0.115  -1.122   1.871  1.00  0.00     0.124 HD
BRANCH   3   5
ATOM      5  C   UNL     1      -0.569  -0.301   0.055  1.00  0.00     0.165 C 
BRANCH   5   6
ATOM      6  C   UNL     1      -0.715   1.065  -0.654  1.00  0.00     0.323 C 
ATOM      7  O   UNL     1      -0.390   2.155  -0.202  1.00  0.00    -0.250 OA
BRANCH   6   8
ATOM      8  O   UNL     1      -1.220   0.884  -1.912  1.00  0.00    -0.465 OA
BRANCH   8   9
ATOM      9  C   UNL     1      -1.452   2.074  -2.680  1.00  0.00     0.229 C 
ATOM     10  C   UNL     1      -2.801   2.672  -2.328  1.00  0.00     0.049 C 
ENDBRANCH   8   9
ENDBRANCH   6   8
ENDBRANCH   5   6
BRANCH   5  11
ATOM     11  C   UNL     1      -1.908  -1.067   0.039  1.00  0.00     0.036 C 
BRANCH  11  12
ATOM     12  C   UNL     1      -3.034  -0.371   0.817  1.00  0.00     0.038 C 
BRANCH  12  13
ATOM     13  C   UNL     1      -4.348  -1.095   0.651  1.00  0.00    -0.048 A 
ATOM     14  C   UNL     1      -4.605  -2.273   1.366  1.00  0.00     0.004 A 
ATOM     15  C   UNL     1      -5.321  -0.610  -0.234  1.00  0.00     0.004 A 
ATOM     16  C   UNL     1      -5.814  -2.951   1.202  1.00  0.00     0.000 A 
ATOM     17  C   UNL     1      -6.529  -1.289  -0.396  1.00  0.00     0.000 A 
ATOM     18  C   UNL     1      -6.776  -2.459   0.322  1.00  0.00     0.000 A 
ENDBRANCH  12  13
ENDBRANCH  11  12
ENDBRANCH   5  11
ENDBRANCH   3   5
ENDBRANCH   1   3
BRANCH   1  19
ATOM     19  C   UNL     1       2.295  -0.786   1.094  1.00  0.00     0.248 C 
ATOM     20  O   UNL     1       1.982  -1.975   1.201  1.00  0.00    -0.273 OA
BRANCH  19  21
ATOM     21  N   UNL     1       3.505  -0.347   0.589  1.00  0.00    -0.247 N 
ATOM     22  C   UNL     1       4.543  -1.210   0.168  1.00  0.00     0.327 C 
ATOM     23  C   UNL     1       3.918   1.039   0.374  1.00  0.00     0.224 C 
ATOM     24  O   UNL     1       4.551  -2.429   0.136  1.00  0.00    -0.248 OA
ATOM     25  N   UNL     1       5.640  -0.407  -0.192  1.00  0.00    -0.325 N 
ATOM     26  C   UNL     1       5.430   0.951   0.243  1.00  0.00     0.158 C 
ATOM     27  C   UNL     1       6.965  -0.953  -0.378  1.00  0.00     0.148 C 
BRANCH  23  28
ATOM     28  C   UNL     1       3.359   1.646  -0.910  1.00  0.00     0.328 C 
ATOM     29  O   UNL     1       3.674   2.736  -1.365  1.00  0.00    -0.250 OA
BRANCH  28  30
ATOM     30  O   UNL     1       2.412   0.911  -1.522  1.00  0.00    -0.480 OA
ATOM     31  H   UNL     1       2.148   1.449  -2.301  1.00  0.00     0.296 HD
ENDBRANCH  28  30
ENDBRANCH  23  28
ENDBRANCH  19  21
ENDBRANCH   1  19
TORSDOF 12
