REMARK SMILES COc1cc(N)c(Cl)cc1C(=O)NC1CCN(CCCOc2ccc(F)cc2)CC1OC
REMARK SMILES IDX 18 1 17 2 14 3 15 4 30 5 16 6 29 7 13 8 11 9 12 10 10 12
REMARK SMILES IDX 3 13 4 14 5 15 9 16 7 17 8 18 2 19 1 20 6 21 31 24 32 25
REMARK SMILES IDX 19 26 20 27 21 28 22 29 23 30 28 31 24 32 27 33 25 34 26 35
REMARK H PARENT 13 11 6 22 6 23
REMARK Flexibility Score: inf
ROOT
ATOM      1  C   UNL     1       2.967  -2.440   1.404  1.00  0.00     0.088 C 
ENDROOT
BRANCH   1   2
ATOM      2  N   UNL     1       1.748  -1.875   0.804  1.00  0.00    -0.300 NA
ATOM      3  C   UNL     1      -0.685  -0.923  -0.088  1.00  0.00     0.113 C 
ATOM      4  C   UNL     1      -0.766  -2.134   0.840  1.00  0.00     0.043 C 
ATOM      5  C   UNL     1       0.295   0.126   0.494  1.00  0.00     0.154 C 
ATOM      6  C   UNL     1       0.609  -2.797   0.992  1.00  0.00     0.087 C 
ATOM      7  C   UNL     1       1.418  -0.542   1.321  1.00  0.00     0.118 C 
BRANCH   3   8
ATOM      8  N   UNL     1      -2.004  -0.342  -0.320  1.00  0.00    -0.346 N 
ATOM      9  C   UNL     1      -2.924  -0.874  -1.188  1.00  0.00     0.255 C 
ATOM     10  O   UNL     1      -2.658  -1.815  -1.931  1.00  0.00    -0.269 OA
ATOM     11  H   UNL     1      -2.320   0.342   0.363  1.00  0.00     0.164 HD
BRANCH   9  12
ATOM     12  C   UNL     1      -4.292  -0.254  -1.217  1.00  0.00     0.083 A 
ATOM     13  C   UNL     1      -4.760   0.713  -0.303  1.00  0.00     0.133 A 
ATOM     14  C   UNL     1      -6.061   1.224  -0.451  1.00  0.00     0.074 A 
ATOM     15  C   UNL     1      -6.896   0.815  -1.501  1.00  0.00     0.054 A 
ATOM     16  C   UNL     1      -5.149  -0.709  -2.235  1.00  0.00     0.040 A 
ATOM     17  C   UNL     1      -6.438  -0.195  -2.361  1.00  0.00     0.065 A 
ATOM     18  Cl  UNL     1      -7.449  -0.797  -3.630  1.00  0.00    -0.082 Cl
BRANCH  13  19
ATOM     19  O   UNL     1      -3.911   1.110   0.700  1.00  0.00    -0.496 OA
ATOM     20  C   UNL     1      -4.434   1.923   1.746  1.00  0.00     0.278 C 
ENDBRANCH  13  19
BRANCH  15  21
ATOM     21  N   UNL     1      -8.228   1.269  -1.531  1.00  0.00    -0.397 N 
ATOM     22  H   UNL     1      -8.677   1.108  -2.432  1.00  0.00     0.156 HD
ATOM     23  H   UNL     1      -8.364   2.215  -1.190  1.00  0.00     0.156 HD
ENDBRANCH  15  21
ENDBRANCH   9  12
ENDBRANCH   3   8
BRANCH   5  24
ATOM     24  O   UNL     1      -0.416   1.023   1.376  1.00  0.00    -0.378 OA
ATOM     25  C   UNL     1      -0.314   2.379   0.955  1.00  0.00     0.195 C 
ENDBRANCH   5  24
ENDBRANCH   1   2
BRANCH   1  26
ATOM     26  C   UNL     1       4.255  -1.780   0.905  1.00  0.00     0.057 C 
BRANCH  26  27
ATOM     27  C   UNL     1       4.445  -1.928  -0.605  1.00  0.00     0.231 C 
BRANCH  27  28
ATOM     28  O   UNL     1       5.684  -1.338  -1.009  1.00  0.00    -0.494 OA
BRANCH  28  29
ATOM     29  C   UNL     1       5.708  -0.008  -1.323  1.00  0.00     0.119 A 
ATOM     30  C   UNL     1       6.960   0.463  -1.742  1.00  0.00     0.049 A 
ATOM     31  C   UNL     1       4.632   0.880  -1.255  1.00  0.00     0.049 A 
ATOM     32  C   UNL     1       7.137   1.803  -2.090  1.00  0.00     0.043 A 
ATOM     33  C   UNL     1       4.807   2.223  -1.605  1.00  0.00     0.043 A 
ATOM     34  C   UNL     1       6.056   2.672  -2.018  1.00  0.00     0.123 A 
ATOM     35  F   UNL     1       6.219   3.960  -2.349  1.00  0.00    -0.207 F 
ENDBRANCH  28  29
ENDBRANCH  27  28
ENDBRANCH  26  27
ENDBRANCH   1  26
TORSDOF 10
