REMARK SMILES Cc1ncc(OC[C@@]2(c3cccc(F)c3)C[C@H]2C(=O)Nc2ccc(F)cn2)c(C)n1
REMARK SMILES IDX 8 1 16 2 17 3 7 4 6 5 5 6 1 7 2 8 3 9 30 10 4 11 28 12 29 13
REMARK SMILES IDX 9 14 10 15 15 16 11 17 13 18 12 19 14 20 18 21 19 22 20 23
REMARK SMILES IDX 21 25 27 26 22 27 26 28 23 29 24 30 25 31
REMARK H PARENT 20 24
REMARK Flexibility Score: inf
ROOT
ATOM      1  C   UNL     1       0.301  -1.635  -1.849  1.00  0.00     0.042 C 
ATOM      2  C   UNL     1       1.104  -1.579  -3.137  1.00  0.00     0.030 C 
ATOM      3  C   UNL     1       1.778  -1.222  -1.837  1.00  0.00     0.094 C 
ENDROOT
BRANCH   1   4
ATOM      4  C   UNL     1      -0.762  -0.562  -1.636  1.00  0.00     0.242 C 
BRANCH   4   5
ATOM      5  O   UNL     1      -0.775  -0.217  -0.248  1.00  0.00    -0.489 OA
BRANCH   5   6
ATOM      6  C   UNL     1      -1.651   0.749   0.144  1.00  0.00     0.158 A 
ATOM      7  C   UNL     1      -4.257   3.706   1.654  1.00  0.00     0.089 C 
ATOM      8  C   UNL     1      -3.347   2.647   1.116  1.00  0.00     0.125 A 
ATOM      9  N   UNL     1      -3.328   2.449  -0.213  1.00  0.00    -0.238 NA
ATOM     10  N   UNL     1      -2.581   1.980   1.997  1.00  0.00    -0.235 NA
ATOM     11  C   UNL     1      -2.479   1.501  -0.664  1.00  0.00     0.161 A 
ATOM     12  C   UNL     1      -1.743   1.038   1.499  1.00  0.00     0.083 A 
ATOM     13  C   UNL     1      -0.910   0.293   2.502  1.00  0.00     0.071 C 
ENDBRANCH   5   6
ENDBRANCH   4   5
ENDBRANCH   1   4
BRANCH   1  14
ATOM     14  C   UNL     1      -0.055  -3.007  -1.281  1.00  0.00    -0.035 A 
ATOM     15  C   UNL     1       0.207  -3.334   0.063  1.00  0.00     0.004 A 
ATOM     16  C   UNL     1      -0.678  -3.987  -2.071  1.00  0.00     0.043 A 
ATOM     17  C   UNL     1      -0.124  -4.585   0.593  1.00  0.00     0.003 A 
ATOM     18  C   UNL     1      -1.005  -5.232  -1.540  1.00  0.00     0.123 A 
ATOM     19  C   UNL     1      -0.732  -5.540  -0.215  1.00  0.00     0.039 A 
ATOM     20  F   UNL     1      -1.595  -6.146  -2.322  1.00  0.00    -0.207 F 
ENDBRANCH   1  14
BRANCH   3  21
ATOM     21  C   UNL     1       2.153   0.189  -1.535  1.00  0.00     0.229 C 
ATOM     22  O   UNL     1       2.218   1.007  -2.440  1.00  0.00    -0.274 OA
ATOM     23  N   UNL     1       2.364   0.401  -0.200  1.00  0.00    -0.310 N 
ATOM     24  H   UNL     1       2.242  -0.367   0.444  1.00  0.00     0.171 HD
BRANCH  23  25
ATOM     25  C   UNL     1       2.667   1.596   0.447  1.00  0.00     0.132 A 
ATOM     26  N   UNL     1       2.772   1.462   1.790  1.00  0.00    -0.236 NA
ATOM     27  C   UNL     1       2.838   2.815  -0.200  1.00  0.00     0.050 A 
ATOM     28  C   UNL     1       3.048   2.581   2.504  1.00  0.00     0.152 A 
ATOM     29  C   UNL     1       3.126   3.949   0.561  1.00  0.00     0.045 A 
ATOM     30  C   UNL     1       3.230   3.826   1.935  1.00  0.00     0.141 A 
ATOM     31  F   UNL     1       3.503   4.894   2.694  1.00  0.00    -0.205 F 
ENDBRANCH  23  25
ENDBRANCH   3  21
TORSDOF 6
