REMARK SMILES CCCCC1=NC2(CCCC2)C(=O)N1Cc1ccc(-c2ccccc2-c2nnn[nH]2)cc1
REMARK SMILES IDX 5 1 6 2 7 3 8 4 9 5 10 6 11 7 12 8 13 9 14 10 4 11 3 12 2 13
REMARK SMILES IDX 1 14 15 15 16 16 17 17 32 18 18 19 31 20 19 21 20 22 21 23
REMARK SMILES IDX 25 24 22 25 24 26 23 27 26 28 27 29 30 30 28 31 29 32
REMARK H PARENT 30 33
REMARK Flexibility Score: inf
ROOT
ATOM      1  C   UNL     1      -2.211  -0.302   0.294  1.00  0.00     0.107 C 
ATOM      2  N   UNL     1      -3.092   0.223   1.091  1.00  0.00    -0.256 NA
ATOM      3  C   UNL     1      -3.358   1.573   0.533  1.00  0.00     0.141 C 
ATOM      4  C   UNL     1      -4.843   1.723   0.194  1.00  0.00     0.041 C 
ATOM      5  C   UNL     1      -5.201   3.123   0.676  1.00  0.00     0.003 C 
ATOM      6  C   UNL     1      -4.360   3.284   1.931  1.00  0.00     0.003 C 
ATOM      7  C   UNL     1      -3.019   2.658   1.559  1.00  0.00     0.041 C 
ATOM      8  C   UNL     1      -2.473   1.642  -0.698  1.00  0.00     0.256 C 
ATOM      9  O   UNL     1      -2.382   2.576  -1.480  1.00  0.00    -0.272 OA
ATOM     10  N   UNL     1      -1.807   0.452  -0.742  1.00  0.00    -0.294 N 
ENDROOT
BRANCH   1  11
ATOM     11  C   UNL     1      -1.705  -1.705   0.520  1.00  0.00     0.075 C 
BRANCH  11  12
ATOM     12  C   UNL     1      -2.499  -2.736  -0.284  1.00  0.00     0.008 C 
BRANCH  12  13
ATOM     13  C   UNL     1      -3.917  -2.940   0.256  1.00  0.00    -0.003 C 
ATOM     14  C   UNL     1      -4.648  -4.040  -0.500  1.00  0.00     0.004 C 
ENDBRANCH  12  13
ENDBRANCH  11  12
ENDBRANCH   1  11
BRANCH  10  15
ATOM     15  C   UNL     1      -0.819   0.149  -1.763  1.00  0.00     0.162 C 
BRANCH  15  16
ATOM     16  C   UNL     1       0.622   0.328  -1.329  1.00  0.00    -0.028 A 
ATOM     17  C   UNL     1       1.634  -0.263  -2.103  1.00  0.00     0.006 A 
ATOM     18  C   UNL     1       0.998   1.088  -0.211  1.00  0.00     0.006 A 
ATOM     19  C   UNL     1       2.981  -0.127  -1.752  1.00  0.00     0.009 A 
ATOM     20  C   UNL     1       2.345   1.215   0.144  1.00  0.00     0.009 A 
ATOM     21  C   UNL     1       3.355   0.602  -0.614  1.00  0.00    -0.018 A 
BRANCH  21  22
ATOM     22  C   UNL     1       4.769   0.734  -0.225  1.00  0.00    -0.007 A 
ATOM     23  C   UNL     1       5.401   1.981  -0.404  1.00  0.00     0.009 A 
ATOM     24  C   UNL     1       5.526  -0.337   0.305  1.00  0.00     0.028 A 
ATOM     25  C   UNL     1       6.743   2.170  -0.070  1.00  0.00     0.001 A 
ATOM     26  C   UNL     1       6.878  -0.129   0.643  1.00  0.00     0.013 A 
ATOM     27  C   UNL     1       7.480   1.116   0.456  1.00  0.00     0.001 A 
BRANCH  24  28
ATOM     28  C   UNL     1       4.946  -1.660   0.516  1.00  0.00     0.180 A 
ATOM     29  N   UNL     1       3.826  -1.985   1.135  1.00  0.00    -0.109 NA
ATOM     30  N   UNL     1       5.492  -2.820   0.037  1.00  0.00    -0.239 N 
ATOM     31  N   UNL     1       3.695  -3.348   1.019  1.00  0.00    -0.024 NA
ATOM     32  N   UNL     1       4.712  -3.865   0.344  1.00  0.00    -0.048 NA
ATOM     33  H   UNL     1       6.322  -2.959  -0.522  1.00  0.00     0.194 HD
ENDBRANCH  24  28
ENDBRANCH  21  22
ENDBRANCH  15  16
ENDBRANCH  10  15
TORSDOF 7
