REMARK SMILES Cn1c(=O)c2[nH]c(Cl)nc2n(C)c1=O
REMARK SMILES IDX 1 1 2 2 3 3 4 4 5 5 6 6 7 7 8 8 9 9 10 10 11 11 12 12 13 13
REMARK SMILES IDX 14 14
REMARK H PARENT 6 15
REMARK Flexibility Score: inf
ROOT
ATOM      1  C   UNL     1      -3.003  -0.205   0.062  1.00  0.00     0.159 C 
ATOM      2  N   UNL     1      -1.554  -0.169   0.101  1.00  0.00    -0.261 N 
ATOM      3  C   UNL     1      -0.860  -1.352  -0.163  1.00  0.00     0.282 C 
ATOM      4  O   UNL     1      -1.376  -2.432  -0.428  1.00  0.00    -0.267 OA
ATOM      5  C   UNL     1       0.545  -1.185  -0.095  1.00  0.00     0.151 A 
ATOM      6  N   UNL     1       1.558  -2.080  -0.284  1.00  0.00    -0.323 N 
ATOM      7  C   UNL     1       2.712  -1.380  -0.096  1.00  0.00     0.202 A 
ATOM      8  Cl  UNL     1       4.194  -2.187  -0.255  1.00  0.00    -0.043 Cl
ATOM      9  N   UNL     1       2.514  -0.117   0.197  1.00  0.00    -0.199 NA
ATOM     10  C   UNL     1       1.156  -0.003   0.196  1.00  0.00     0.169 A 
ATOM     11  N   UNL     1       0.429   1.135   0.448  1.00  0.00    -0.279 N 
ATOM     12  C   UNL     1       1.108   2.381   0.755  1.00  0.00     0.157 C 
ATOM     13  C   UNL     1      -0.967   1.079   0.406  1.00  0.00     0.332 C 
ATOM     14  O   UNL     1      -1.667   2.072   0.625  1.00  0.00    -0.247 OA
ATOM     15  H   UNL     1       1.474  -3.061  -0.517  1.00  0.00     0.169 HD
ENDROOT
TORSDOF 0
