REMARK SMILES C1CCN2C[C@@H]3C[C@@H](CN4CCCC[C@@H]34)[C@H]2C1
REMARK SMILES IDX 1 1 2 2 3 3 4 4 5 5 6 6 7 7 8 8 9 9 10 10 11 11 12 12 13 13
REMARK SMILES IDX 14 14 15 15 16 16 17 17
REMARK H PARENT
REMARK Flexibility Score: inf
ROOT
ATOM      1  C   UNL     1      -3.558  -1.520   0.041  1.00  0.00     0.003 C 
ATOM      2  C   UNL     1      -4.046  -0.187   0.582  1.00  0.00     0.016 C 
ATOM      3  C   UNL     1      -2.918   0.581   1.278  1.00  0.00     0.085 C 
ATOM      4  N   UNL     1      -1.619   0.504   0.597  1.00  0.00    -0.300 NA
ATOM      5  C   UNL     1      -0.825   1.719   0.804  1.00  0.00     0.090 C 
ATOM      6  C   UNL     1       0.520   1.758   0.044  1.00  0.00     0.021 C 
ATOM      7  C   UNL     1       0.232   1.519  -1.440  1.00  0.00     0.013 C 
ATOM      8  C   UNL     1      -0.333   0.103  -1.561  1.00  0.00     0.021 C 
ATOM      9  C   UNL     1       0.759  -0.887  -1.090  1.00  0.00     0.090 C 
ATOM     10  N   UNL     1       1.179  -0.666   0.294  1.00  0.00    -0.300 NA
ATOM     11  C   UNL     1       2.164  -1.637   0.770  1.00  0.00     0.085 C 
ATOM     12  C   UNL     1       3.588  -1.360   0.290  1.00  0.00     0.016 C 
ATOM     13  C   UNL     1       4.005   0.066   0.624  1.00  0.00     0.003 C 
ATOM     14  C   UNL     1       2.978   1.062   0.095  1.00  0.00     0.019 C 
ATOM     15  C   UNL     1       1.552   0.728   0.589  1.00  0.00     0.061 C 
ATOM     16  C   UNL     1      -1.692   0.047  -0.796  1.00  0.00     0.061 C 
ATOM     17  C   UNL     1      -2.320  -1.362  -0.847  1.00  0.00     0.019 C 
ENDROOT
TORSDOF 0
