REMARK SMILES CN(CCO)CC(O)Cn1cnc2c1c(=O)n(C)c(=O)n2C
REMARK SMILES IDX 1 1 2 2 3 3 4 4 5 5 6 7 7 8 8 9 9 11 10 12 11 13 14 14 12 15
REMARK SMILES IDX 13 16 15 17 21 18 16 19 17 20 19 21 22 22 18 23 20 24
REMARK H PARENT 5 6 8 10
REMARK Flexibility Score: inf
ROOT
ATOM      1  C   UNL     1      -4.174   1.877  -0.802  1.00  0.00     0.105 C 
ATOM      2  N   UNL     1      -3.169   1.139  -0.036  1.00  0.00    -0.301 NA
ENDROOT
BRANCH   2   3
ATOM      3  C   UNL     1      -3.761   0.458   1.131  1.00  0.00     0.112 C 
BRANCH   3   4
ATOM      4  C   UNL     1      -4.754  -0.691   0.879  1.00  0.00     0.171 C 
BRANCH   4   5
ATOM      5  O   UNL     1      -6.003  -0.206   0.395  1.00  0.00    -0.395 OA
ATOM      6  H   UNL     1      -6.609  -0.966   0.358  1.00  0.00     0.210 HD
ENDBRANCH   4   5
ENDBRANCH   3   4
ENDBRANCH   2   3
BRANCH   2   7
ATOM      7  C   UNL     1      -2.348   0.301  -0.927  1.00  0.00     0.117 C 
BRANCH   7   8
ATOM      8  C   UNL     1      -1.167  -0.436  -0.241  1.00  0.00     0.148 C 
BRANCH   8   9
ATOM      9  O   UNL     1      -1.640  -1.612   0.443  1.00  0.00    -0.390 OA
ATOM     10  H   UNL     1      -2.168  -2.136  -0.183  1.00  0.00     0.211 HD
ENDBRANCH   8   9
BRANCH   8  11
ATOM     11  C   UNL     1      -0.123  -0.869  -1.281  1.00  0.00     0.157 C 
BRANCH  11  12
ATOM     12  N   UNL     1       1.144  -1.233  -0.670  1.00  0.00    -0.322 N 
ATOM     13  C   UNL     1       1.529  -2.501  -0.318  1.00  0.00     0.202 A 
ATOM     14  C   UNL     1       2.186  -0.402  -0.366  1.00  0.00     0.152 A 
ATOM     15  N   UNL     1       2.753  -2.522   0.171  1.00  0.00    -0.218 NA
ATOM     16  C   UNL     1       3.149  -1.219   0.146  1.00  0.00     0.167 A 
ATOM     17  C   UNL     1       2.351   1.004  -0.496  1.00  0.00     0.282 C 
ATOM     18  N   UNL     1       4.362  -0.734   0.571  1.00  0.00    -0.279 N 
ATOM     19  O   UNL     1       1.482   1.731  -0.969  1.00  0.00    -0.267 OA
ATOM     20  N   UNL     1       3.594   1.450  -0.039  1.00  0.00    -0.261 N 
ATOM     21  C   UNL     1       4.618   0.634   0.485  1.00  0.00     0.332 C 
ATOM     22  C   UNL     1       5.360  -1.641   1.108  1.00  0.00     0.157 C 
ATOM     23  C   UNL     1       3.880   2.869  -0.115  1.00  0.00     0.159 C 
ATOM     24  O   UNL     1       5.694   1.121   0.847  1.00  0.00    -0.247 OA
ENDBRANCH  11  12
ENDBRANCH   8  11
ENDBRANCH   7   8
ENDBRANCH   2   7
TORSDOF 8
