REMARK SMILES CC1C2Cc3ccc(O)cc3C1(C)CCN2CCc1ccccc1
REMARK SMILES IDX 17 1 16 2 1 3 2 4 3 5 12 6 4 7 11 8 13 9 14 10 5 11 15 12
REMARK SMILES IDX 10 13 6 14 8 15 7 16 9 17 18 19 19 20 20 21 24 22 21 23
REMARK SMILES IDX 23 24 22 25
REMARK H PARENT 9 18
REMARK Flexibility Score: inf
ROOT
ATOM      1  C   UNL     1       1.761   0.302   0.484  1.00  0.00     0.089 C 
ENDROOT
BRANCH   1   2
ATOM      2  N   UNL     1       0.374   0.722   0.771  1.00  0.00    -0.299 NA
ATOM      3  C   UNL     1      -1.427  -2.707   0.905  1.00  0.00     0.010 C 
ATOM      4  C   UNL     1      -0.791  -1.457   0.274  1.00  0.00     0.014 C 
ATOM      5  C   UNL     1      -0.440  -0.391   1.331  1.00  0.00     0.064 C 
ATOM      6  C   UNL     1      -1.654  -0.776  -0.827  1.00  0.00    -0.002 C 
ATOM      7  C   UNL     1      -1.724   0.133   2.019  1.00  0.00     0.055 C 
ATOM      8  C   UNL     1      -2.930  -0.165  -0.223  1.00  0.00    -0.035 A 
ATOM      9  C   UNL     1      -1.952  -1.797  -1.948  1.00  0.00     0.017 C 
ATOM     10  C   UNL     1      -0.808   0.376  -1.436  1.00  0.00     0.027 C 
ATOM     11  C   UNL     1      -2.934   0.279   1.120  1.00  0.00    -0.042 A 
ATOM     12  C   UNL     1      -0.278   1.360  -0.384  1.00  0.00     0.086 C 
ATOM     13  C   UNL     1      -4.094   0.023  -0.993  1.00  0.00     0.050 A 
ATOM     14  C   UNL     1      -4.093   0.859   1.665  1.00  0.00     0.008 A 
ATOM     15  C   UNL     1      -5.230   0.604  -0.431  1.00  0.00     0.115 A 
ATOM     16  C   UNL     1      -5.238   1.019   0.891  1.00  0.00     0.046 A 
BRANCH  15  17
ATOM     17  O   UNL     1      -6.368   0.788  -1.160  1.00  0.00    -0.508 OA
ATOM     18  H   UNL     1      -6.220   0.446  -2.056  1.00  0.00     0.293 HD
ENDBRANCH  15  17
ENDBRANCH   1   2
BRANCH   1  19
ATOM     19  C   UNL     1       2.741   1.488   0.446  1.00  0.00     0.051 C 
BRANCH  19  20
ATOM     20  C   UNL     1       4.164   1.022   0.241  1.00  0.00    -0.047 A 
ATOM     21  C   UNL     1       4.671   0.832  -1.051  1.00  0.00     0.004 A 
ATOM     22  C   UNL     1       4.986   0.746   1.342  1.00  0.00     0.004 A 
ATOM     23  C   UNL     1       5.978   0.382  -1.239  1.00  0.00     0.000 A 
ATOM     24  C   UNL     1       6.294   0.296   1.152  1.00  0.00     0.000 A 
ATOM     25  C   UNL     1       6.789   0.114  -0.138  1.00  0.00     0.000 A 
ENDBRANCH  19  20
ENDBRANCH   1  19
TORSDOF 4
