REMARK SMILES CNC(=O)c1ccc(-c2cnc3ncc(Cc4ccc5ncccc5c4)n3n2)cc1F
REMARK SMILES IDX 9 1 28 2 27 3 15 4 14 5 13 6 12 7 11 8 10 9 8 10 5 11 30 12
REMARK SMILES IDX 6 13 31 14 29 15 7 16 3 17 1 18 2 19 4 21 16 22 17 23 26 24
REMARK SMILES IDX 18 25 25 26 19 27 20 28 24 29 21 30 23 31 22 32
REMARK H PARENT 2 20
REMARK Flexibility Score: inf
ROOT
ATOM      1  C   UNL     1       0.954   1.851  -0.365  1.00  0.00     0.110 C 
ATOM      2  N   UNL     1      -0.066   1.371  -1.018  1.00  0.00    -0.163 NA
ATOM      3  N   UNL     1      -1.040   2.301  -1.238  1.00  0.00    -0.200 N 
ATOM      4  C   UNL     1      -2.227   2.085  -1.891  1.00  0.00     0.069 A 
ATOM      5  C   UNL     1      -2.857   3.310  -1.888  1.00  0.00     0.139 A 
ATOM      6  N   UNL     1      -2.102   4.257  -1.249  1.00  0.00    -0.218 NA
ATOM      7  C   UNL     1      -1.008   3.639  -0.851  1.00  0.00     0.250 A 
ATOM      8  N   UNL     1       0.046   4.147  -0.158  1.00  0.00    -0.217 NA
ATOM      9  C   UNL     1       0.989   3.298   0.095  1.00  0.00     0.146 C 
ENDROOT
BRANCH   1  10
ATOM     10  C   UNL     1       2.101   0.965  -0.046  1.00  0.00     0.006 A 
ATOM     11  C   UNL     1       4.237  -0.779   0.533  1.00  0.00     0.075 A 
ATOM     12  C   UNL     1       4.464   0.572   0.263  1.00  0.00     0.136 A 
ATOM     13  C   UNL     1       2.917  -1.253   0.504  1.00  0.00     0.017 A 
ATOM     14  F   UNL     1       5.706   1.082   0.274  1.00  0.00    -0.206 F 
ATOM     15  C   UNL     1       3.412   1.445  -0.026  1.00  0.00     0.050 A 
ATOM     16  C   UNL     1       1.857  -0.389   0.211  1.00  0.00     0.011 A 
BRANCH  11  17
ATOM     17  C   UNL     1       5.328  -1.744   0.848  1.00  0.00     0.253 C 
ATOM     18  C   UNL     1       7.737  -2.130   1.142  1.00  0.00     0.143 C 
ATOM     19  N   UNL     1       6.625  -1.289   0.776  1.00  0.00    -0.355 N 
ATOM     20  H   UNL     1       6.804  -0.304   0.612  1.00  0.00     0.163 HD
ATOM     21  O   UNL     1       5.044  -2.897   1.160  1.00  0.00    -0.269 OA
ENDBRANCH  11  17
ENDBRANCH   1  10
BRANCH   4  22
ATOM     22  C   UNL     1      -2.633   0.769  -2.450  1.00  0.00     0.093 C 
BRANCH  22  23
ATOM     23  C   UNL     1      -3.074  -0.214  -1.390  1.00  0.00    -0.041 A 
ATOM     24  C   UNL     1      -4.290  -0.045  -0.714  1.00  0.00     0.014 A 
ATOM     25  C   UNL     1      -2.269  -1.306  -1.053  1.00  0.00     0.006 A 
ATOM     26  C   UNL     1      -4.693  -0.954   0.282  1.00  0.00     0.000 A 
ATOM     27  C   UNL     1      -2.676  -2.207  -0.063  1.00  0.00     0.029 A 
ATOM     28  C   UNL     1      -3.876  -2.054   0.615  1.00  0.00     0.070 A 
ATOM     29  C   UNL     1      -5.903  -0.802   0.972  1.00  0.00     0.012 A 
ATOM     30  N   UNL     1      -4.220  -2.948   1.560  1.00  0.00    -0.256 NA
ATOM     31  C   UNL     1      -6.262  -1.723   1.948  1.00  0.00     0.021 A 
ATOM     32  C   UNL     1      -5.395  -2.769   2.202  1.00  0.00     0.112 A 
ENDBRANCH  22  23
ENDBRANCH   4  22
TORSDOF 4
