REMARK SMILES [O-][n+]1cccc(-c2nc3c(Cl)cccc3cc2[C@@H](Nc2ncnc3cccnc23)C(F)(F)F)c1
REMARK SMILES IDX 18 1 17 2 7 3 8 4 9 5 16 6 10 7 15 8 11 9 12 10 14 11 13 12
REMARK SMILES IDX 6 13 1 14 2 15 34 16 3 17 4 18 5 19 19 20 20 22 21 23 29 24
REMARK SMILES IDX 22 25 24 26 28 27 23 28 25 29 27 30 26 31 30 32 31 33 32 34
REMARK SMILES IDX 33 35
REMARK H PARENT 19 21
REMARK Flexibility Score: inf
ROOT
ATOM      1  C   UNL     1      -0.104  -0.369  -1.091  1.00  0.00     0.219 C 
ENDROOT
BRANCH   1   2
ATOM      2  C   UNL     1       0.986   0.623  -0.690  1.00  0.00     0.011 A 
ATOM      3  C   UNL     1       2.044   0.268   0.152  1.00  0.00     0.083 A 
ATOM      4  N   UNL     1       3.047   1.128   0.465  1.00  0.00    -0.246 NA
ATOM      5  C   UNL     1       3.034   2.400   0.005  1.00  0.00     0.090 A 
ATOM      6  C   UNL     1       0.963   1.951  -1.146  1.00  0.00     0.019 A 
ATOM      7  C   UNL     1       4.047   3.320   0.316  1.00  0.00     0.067 A 
ATOM      8  C   UNL     1       1.982   2.853  -0.811  1.00  0.00     0.002 A 
ATOM      9  Cl  UNL     1       5.386   2.855   1.314  1.00  0.00    -0.082 Cl
ATOM     10  C   UNL     1       4.025   4.639  -0.155  1.00  0.00     0.023 A 
ATOM     11  C   UNL     1       1.958   4.179  -1.284  1.00  0.00     0.010 A 
ATOM     12  C   UNL     1       2.976   5.069  -0.957  1.00  0.00     0.002 A 
BRANCH   3  13
ATOM     13  C   UNL     1       2.199  -1.040   0.801  1.00  0.00     0.066 A 
ATOM     14  O   UNL     1       4.543  -3.758   0.880  1.00  0.00    -0.619 OA
ATOM     15  N   UNL     1       3.521  -3.054   1.147  1.00  0.00    -0.178 N 
ATOM     16  C   UNL     1       3.334  -1.820   0.551  1.00  0.00     0.331 A 
ATOM     17  C   UNL     1       2.562  -3.516   2.029  1.00  0.00     0.321 A 
ATOM     18  C   UNL     1       1.428  -2.768   2.326  1.00  0.00     0.073 A 
ATOM     19  C   UNL     1       1.254  -1.530   1.714  1.00  0.00     0.023 A 
ENDBRANCH   3  13
ENDBRANCH   1   2
BRANCH   1  20
ATOM     20  N   UNL     1      -1.283  -0.061  -0.246  1.00  0.00    -0.353 N 
ATOM     21  H   UNL     1      -1.763   0.801  -0.521  1.00  0.00     0.163 HD
BRANCH  20  22
ATOM     22  C   UNL     1      -2.261  -1.084  -0.166  1.00  0.00     0.156 A 
ATOM     23  N   UNL     1      -1.874  -2.356  -0.383  1.00  0.00    -0.217 NA
ATOM     24  C   UNL     1      -3.557  -0.725   0.229  1.00  0.00     0.131 A 
ATOM     25  C   UNL     1      -2.811  -3.297  -0.224  1.00  0.00     0.225 A 
ATOM     26  C   UNL     1      -4.431  -1.810   0.365  1.00  0.00     0.094 A 
ATOM     27  N   UNL     1      -3.931   0.572   0.435  1.00  0.00    -0.251 NA
ATOM     28  N   UNL     1      -4.079  -3.087   0.145  1.00  0.00    -0.235 NA
ATOM     29  C   UNL     1      -5.731  -1.516   0.746  1.00  0.00     0.032 A 
ATOM     30  C   UNL     1      -5.206   0.802   0.808  1.00  0.00     0.112 A 
ATOM     31  C   UNL     1      -6.137  -0.202   0.976  1.00  0.00     0.022 A 
ENDBRANCH  20  22
ENDBRANCH   1  20
BRANCH   1  32
ATOM     32  C   UNL     1      -0.397  -0.365  -2.621  1.00  0.00     0.412 C 
ATOM     33  F   UNL     1       0.745  -0.414  -3.348  1.00  0.00    -0.168 F 
ATOM     34  F   UNL     1      -1.067   0.755  -2.996  1.00  0.00    -0.168 F 
ATOM     35  F   UNL     1      -1.152  -1.420  -3.006  1.00  0.00    -0.168 F 
ENDBRANCH   1  32
TORSDOF 5
