REMARK SMILES Cn1cc(-c2ccc(CNc3cc(-c4cnc5cc(OCCCN6CCCC6)ccn45)ncn3)cc2)cn1
REMARK SMILES IDX 14 1 15 2 16 3 17 4 18 5 19 6 29 7 30 8 31 9 13 10 11 11
REMARK SMILES IDX 12 12 34 13 33 14 32 15 10 16 9 18 8 19 5 20 6 21 36 22 7 23
REMARK SMILES IDX 35 24 4 25 1 26 2 27 3 28 38 29 37 30 20 31 21 32 22 33
REMARK SMILES IDX 23 34 24 35 25 36 28 37 26 38 27 39
REMARK H PARENT 10 17
REMARK Flexibility Score: inf
ROOT
ATOM      1  C   UNL     1      -0.602   0.344   3.742  1.00  0.00     0.091 A 
ATOM      2  C   UNL     1      -1.434  -0.178   4.717  1.00  0.00     0.142 A 
ATOM      3  N   UNL     1      -2.717  -0.337   4.265  1.00  0.00    -0.236 NA
ATOM      4  C   UNL     1      -2.705   0.126   3.034  1.00  0.00     0.140 A 
ATOM      5  C   UNL     1      -3.755   0.234   2.075  1.00  0.00     0.094 C 
ATOM      6  C   UNL     1      -3.514   0.783   0.863  1.00  0.00     0.124 C 
ATOM      7  C   UNL     1      -2.183   1.278   0.531  1.00  0.00     0.065 C 
ATOM      8  C   UNL     1      -1.187   1.172   1.426  1.00  0.00     0.097 C 
ATOM      9  N   UNL     1      -1.441   0.584   2.667  1.00  0.00    -0.298 N 
ENDROOT
BRANCH   1  10
ATOM     10  C   UNL     1       0.820   0.632   3.802  1.00  0.00     0.094 A 
ATOM     11  C   UNL     1       3.032   0.523   3.032  1.00  0.00     0.130 A 
ATOM     12  C   UNL     1       1.710   0.173   2.854  1.00  0.00     0.077 A 
ATOM     13  N   UNL     1       3.443   1.242   4.084  1.00  0.00    -0.220 NA
ATOM     14  C   UNL     1       2.500   1.619   4.959  1.00  0.00     0.224 A 
ATOM     15  N   UNL     1       1.192   1.352   4.873  1.00  0.00    -0.235 NA
BRANCH  11  16
ATOM     16  N   UNL     1       4.032   0.120   2.147  1.00  0.00    -0.366 N 
ATOM     17  H   UNL     1       4.894   0.516   2.523  1.00  0.00     0.162 HD
BRANCH  16  18
ATOM     18  C   UNL     1       3.825   0.542   0.767  1.00  0.00     0.150 C 
BRANCH  18  19
ATOM     19  C   UNL     1       5.077   0.283  -0.038  1.00  0.00    -0.029 A 
ATOM     20  C   UNL     1       7.408  -0.213  -1.564  1.00  0.00    -0.015 A 
ATOM     21  C   UNL     1       6.909   1.088  -1.420  1.00  0.00     0.009 A 
ATOM     22  C   UNL     1       6.726  -1.265  -0.939  1.00  0.00     0.009 A 
ATOM     23  C   UNL     1       5.757   1.335  -0.665  1.00  0.00     0.006 A 
ATOM     24  C   UNL     1       5.573  -1.020  -0.184  1.00  0.00     0.006 A 
BRANCH  20  25
ATOM     25  C   UNL     1       8.603  -0.482  -2.348  1.00  0.00     0.020 A 
ATOM     26  C   UNL     1      11.834   0.257  -3.771  1.00  0.00     0.173 C 
ATOM     27  N   UNL     1      10.564  -0.252  -3.313  1.00  0.00    -0.275 N 
ATOM     28  C   UNL     1       9.645   0.402  -2.545  1.00  0.00     0.117 A 
ATOM     29  N   UNL     1      10.200  -1.505  -3.637  1.00  0.00    -0.181 NA
ATOM     30  C   UNL     1       9.010  -1.644  -3.046  1.00  0.00     0.143 A 
ENDBRANCH  20  25
ENDBRANCH  18  19
ENDBRANCH  16  18
ENDBRANCH  11  16
ENDBRANCH   1  10
BRANCH   6  31
ATOM     31  O   UNL     1      -4.400   0.963  -0.168  1.00  0.00    -0.493 OA
BRANCH  31  32
ATOM     32  C   UNL     1      -5.770   0.585   0.000  1.00  0.00     0.231 C 
BRANCH  32  33
ATOM     33  C   UNL     1      -5.966  -0.892  -0.338  1.00  0.00     0.057 C 
BRANCH  33  34
ATOM     34  C   UNL     1      -7.414  -1.357  -0.153  1.00  0.00     0.088 C 
BRANCH  34  35
ATOM     35  N   UNL     1      -8.376  -0.613  -0.967  1.00  0.00    -0.303 NA
ATOM     36  C   UNL     1      -9.759  -1.001  -0.675  1.00  0.00     0.084 C 
ATOM     37  C   UNL     1      -8.222  -0.833  -2.408  1.00  0.00     0.084 C 
ATOM     38  C   UNL     1     -10.526  -0.362  -1.820  1.00  0.00     0.017 C 
ATOM     39  C   UNL     1      -9.553  -0.374  -2.993  1.00  0.00     0.017 C 
ENDBRANCH  34  35
ENDBRANCH  33  34
ENDBRANCH  32  33
ENDBRANCH  31  32
ENDBRANCH   6  31
TORSDOF 10
