REMARK SMILES CN1CCc2cccc3c2[C@H]1Cc1ccc(O)c(O)c1-3
REMARK SMILES IDX 1 1 2 2 3 3 4 4 5 5 6 6 7 7 8 8 9 9 10 10 11 11 12 12 13 13
REMARK SMILES IDX 14 14 15 15 16 16 18 17 20 18 19 19 17 21
REMARK H PARENT 19 20 17 22
REMARK Flexibility Score: inf
ROOT
ATOM      1  C   UNL     1      -2.430   1.384   2.362  1.00  0.00     0.106 C 
ATOM      2  N   UNL     1      -2.148   1.411   0.926  1.00  0.00    -0.299 NA
ATOM      3  C   UNL     1      -3.234   0.793   0.153  1.00  0.00     0.089 C 
ATOM      4  C   UNL     1      -3.308  -0.731   0.297  1.00  0.00     0.051 C 
ATOM      5  C   UNL     1      -1.994  -1.346  -0.094  1.00  0.00    -0.041 A 
ATOM      6  C   UNL     1      -1.941  -2.648  -0.592  1.00  0.00     0.004 A 
ATOM      7  C   UNL     1      -0.731  -3.169  -1.036  1.00  0.00     0.001 A 
ATOM      8  C   UNL     1       0.430  -2.391  -0.993  1.00  0.00     0.009 A 
ATOM      9  C   UNL     1       0.425  -1.089  -0.465  1.00  0.00    -0.009 A 
ATOM     10  C   UNL     1      -0.814  -0.586   0.013  1.00  0.00    -0.019 A 
ATOM     11  C   UNL     1      -0.823   0.808   0.633  1.00  0.00     0.092 C 
ATOM     12  C   UNL     1      -0.006   1.745  -0.278  1.00  0.00     0.060 C 
ATOM     13  C   UNL     1       1.409   1.211  -0.423  1.00  0.00    -0.034 A 
ATOM     14  C   UNL     1       2.480   2.120  -0.507  1.00  0.00     0.008 A 
ATOM     15  C   UNL     1       3.789   1.659  -0.596  1.00  0.00     0.050 A 
ATOM     16  C   UNL     1       4.016   0.292  -0.594  1.00  0.00     0.158 A 
ATOM     17  C   UNL     1       2.956  -0.624  -0.531  1.00  0.00     0.165 A 
ATOM     18  C   UNL     1       1.620  -0.196  -0.472  1.00  0.00     0.031 A 
ENDROOT
BRANCH  17  19
ATOM     19  O   UNL     1       3.298  -1.953  -0.499  1.00  0.00    -0.504 OA
ATOM     20  H   UNL     1       4.275  -1.957  -0.529  1.00  0.00     0.293 HD
ENDBRANCH  17  19
BRANCH  16  21
ATOM     21  O   UNL     1       5.288  -0.220  -0.651  1.00  0.00    -0.504 OA
ATOM     22  H   UNL     1       5.911   0.525  -0.698  1.00  0.00     0.293 HD
ENDBRANCH  16  21
TORSDOF 2
