REMARK SMILES COc1cc2ncnc(Nc3cccc(Cl)c3F)c2cc1OC(=O)N1CCN(C)C[C@H]1C
REMARK SMILES IDX 3 1 21 2 20 3 19 4 9 5 8 6 7 7 6 8 5 9 4 10 2 11 1 12 22 13
REMARK SMILES IDX 23 14 24 15 25 16 26 17 31 18 27 19 30 20 32 21 28 22 29 23
REMARK SMILES IDX 10 24 11 26 17 27 12 28 18 29 15 30 13 31 16 32 14 33
REMARK H PARENT 10 25
REMARK Flexibility Score: inf
ROOT
ATOM      1  C   UNL     1       0.232  -3.254   0.038  1.00  0.00     0.163 A 
ATOM      2  C   UNL     1       0.010  -1.917   0.365  1.00  0.00     0.175 A 
ATOM      3  C   UNL     1       0.974  -0.941   0.126  1.00  0.00     0.065 A 
ATOM      4  C   UNL     1       2.195  -1.296  -0.493  1.00  0.00     0.047 A 
ATOM      5  C   UNL     1       3.232  -0.395  -0.808  1.00  0.00     0.141 A 
ATOM      6  N   UNL     1       4.387  -0.808  -1.359  1.00  0.00    -0.219 NA
ATOM      7  C   UNL     1       4.496  -2.112  -1.624  1.00  0.00     0.224 A 
ATOM      8  N   UNL     1       3.571  -3.048  -1.386  1.00  0.00    -0.236 NA
ATOM      9  C   UNL     1       2.431  -2.639  -0.824  1.00  0.00     0.080 A 
ATOM     10  C   UNL     1       1.450  -3.592  -0.555  1.00  0.00     0.079 A 
ENDROOT
BRANCH   1  11
ATOM     11  O   UNL     1      -0.773  -4.128   0.347  1.00  0.00    -0.493 OA
ATOM     12  C   UNL     1      -0.639  -5.463  -0.126  1.00  0.00     0.278 C 
ENDBRANCH   1  11
BRANCH   2  13
ATOM     13  O   UNL     1      -1.180  -1.541   0.995  1.00  0.00    -0.406 OA
BRANCH  13  14
ATOM     14  C   UNL     1      -2.170  -1.132   0.103  1.00  0.00     0.415 C 
ATOM     15  O   UNL     1      -1.989  -1.025  -1.105  1.00  0.00    -0.224 OA
BRANCH  14  16
ATOM     16  N   UNL     1      -3.372  -0.833   0.749  1.00  0.00    -0.303 N 
ATOM     17  C   UNL     1      -3.342  -0.460   2.166  1.00  0.00     0.139 C 
ATOM     18  C   UNL     1      -4.453  -0.131   0.035  1.00  0.00     0.099 C 
ATOM     19  C   UNL     1      -3.106   1.063   2.291  1.00  0.00     0.106 C 
ATOM     20  C   UNL     1      -4.208   1.399   0.125  1.00  0.00     0.109 C 
ATOM     21  C   UNL     1      -4.731  -0.586  -1.397  1.00  0.00     0.032 C 
ATOM     22  N   UNL     1      -4.111   1.849   1.538  1.00  0.00    -0.303 NA
ATOM     23  C   UNL     1      -3.807   3.277   1.603  1.00  0.00     0.105 C 
ENDBRANCH  14  16
ENDBRANCH  13  14
ENDBRANCH   2  13
BRANCH   5  24
ATOM     24  N   UNL     1       3.046   0.986  -0.537  1.00  0.00    -0.337 N 
ATOM     25  H   UNL     1       2.172   1.297  -0.960  1.00  0.00     0.168 HD
BRANCH  24  26
ATOM     26  C   UNL     1       4.005   2.027  -0.578  1.00  0.00     0.077 A 
ATOM     27  C   UNL     1       3.576   3.337  -0.848  1.00  0.00     0.165 A 
ATOM     28  C   UNL     1       5.352   1.835  -0.248  1.00  0.00     0.029 A 
ATOM     29  F   UNL     1       2.275   3.541  -1.124  1.00  0.00    -0.203 F 
ATOM     30  C   UNL     1       4.467   4.411  -0.840  1.00  0.00     0.078 A 
ATOM     31  C   UNL     1       6.251   2.908  -0.240  1.00  0.00     0.004 A 
ATOM     32  Cl  UNL     1       3.922   6.006  -1.191  1.00  0.00    -0.081 Cl
ATOM     33  C   UNL     1       5.810   4.196  -0.541  1.00  0.00     0.024 A 
ENDBRANCH  24  26
ENDBRANCH   5  24
TORSDOF 6
