REMARK SMILES CCCCCOC(=O)Nc1nc(=O)n([C@@H]2O[C@H](C)[C@@H](O)[C@H]2O)cc1F
REMARK SMILES IDX 5 1 4 2 3 3 2 4 1 5 6 6 7 7 8 8 9 9 10 10 11 12 24 13 12 14
REMARK SMILES IDX 23 15 25 16 13 17 14 18 15 19 16 20 21 21 17 22 19 23 18 24
REMARK SMILES IDX 22 25 20 27
REMARK H PARENT 9 11 22 26 20 28
REMARK Flexibility Score: inf
ROOT
ATOM      1  C   UNL     1       4.674   1.543  -0.999  1.00  0.00     0.235 C 
ENDROOT
BRANCH   1   2
ATOM      2  C   UNL     1       5.189   0.217  -1.556  1.00  0.00     0.042 C 
BRANCH   2   3
ATOM      3  C   UNL     1       5.459  -0.859  -0.498  1.00  0.00     0.003 C 
BRANCH   3   4
ATOM      4  C   UNL     1       6.552  -0.469   0.497  1.00  0.00    -0.003 C 
ATOM      5  C   UNL     1       6.862  -1.609   1.455  1.00  0.00     0.004 C 
ENDBRANCH   3   4
ENDBRANCH   2   3
ENDBRANCH   1   2
BRANCH   1   6
ATOM      6  O   UNL     1       3.523   1.348  -0.163  1.00  0.00    -0.449 OA
BRANCH   6   7
ATOM      7  C   UNL     1       2.326   1.275  -0.809  1.00  0.00     0.412 C 
ATOM      8  O   UNL     1       2.193   1.369  -2.017  1.00  0.00    -0.224 OA
ATOM      9  N   UNL     1       1.354   1.083   0.137  1.00  0.00    -0.273 N 
ATOM     10  C   UNL     1      -0.004   0.940  -0.052  1.00  0.00     0.178 C 
ATOM     11  H   UNL     1       1.717   1.044   1.079  1.00  0.00     0.175 HD
ATOM     12  N   UNL     1      -0.555   0.970  -1.215  1.00  0.00    -0.172 NA
ATOM     13  C   UNL     1      -0.739   0.751   1.208  1.00  0.00     0.182 C 
ATOM     14  C   UNL     1      -1.921   0.819  -1.318  1.00  0.00     0.351 C 
ATOM     15  C   UNL     1      -2.055   0.612   1.104  1.00  0.00     0.137 C 
ATOM     16  F   UNL     1      -0.061   0.726   2.368  1.00  0.00    -0.201 F 
ATOM     17  O   UNL     1      -2.476   0.846  -2.413  1.00  0.00    -0.246 OA
ATOM     18  N   UNL     1      -2.665   0.655  -0.135  1.00  0.00    -0.267 N 
BRANCH  18  19
ATOM     19  C   UNL     1      -4.098   0.441  -0.281  1.00  0.00     0.255 C 
ATOM     20  O   UNL     1      -4.812   0.990   0.855  1.00  0.00    -0.349 OA
ATOM     21  C   UNL     1      -4.500  -1.040  -0.360  1.00  0.00     0.195 C 
ATOM     22  C   UNL     1      -5.887   0.087   1.202  1.00  0.00     0.149 C 
ATOM     23  C   UNL     1      -5.949  -0.963   0.093  1.00  0.00     0.176 C 
ATOM     24  C   UNL     1      -5.587  -0.508   2.571  1.00  0.00     0.041 C 
BRANCH  21  25
ATOM     25  O   UNL     1      -4.376  -1.632  -1.644  1.00  0.00    -0.386 OA
ATOM     26  H   UNL     1      -5.131  -1.310  -2.176  1.00  0.00     0.211 HD
ENDBRANCH  21  25
BRANCH  23  27
ATOM     27  O   UNL     1      -6.756  -0.515  -1.012  1.00  0.00    -0.388 OA
ATOM     28  H   UNL     1      -6.832   0.457  -0.984  1.00  0.00     0.211 HD
ENDBRANCH  23  27
ENDBRANCH  18  19
ENDBRANCH   6   7
ENDBRANCH   1   6
TORSDOF 8
