REMARK SMILES CN1Cc2c(N)cccc2C(c2ccccc2)C1
REMARK SMILES IDX 1 1 2 2 3 3 4 4 5 5 7 6 8 7 9 8 10 9 11 10 18 11 12 12 13 13
REMARK SMILES IDX 17 14 14 15 16 16 15 17 6 18
REMARK H PARENT 6 19 6 20
REMARK Flexibility Score: inf
ROOT
ATOM      1  C   UNL     1      -1.622  -2.409  -1.948  1.00  0.00     0.105 C 
ATOM      2  N   UNL     1      -1.045  -1.341  -1.138  1.00  0.00    -0.301 NA
ATOM      3  C   UNL     1      -2.089  -0.400  -0.696  1.00  0.00     0.122 C 
ATOM      4  C   UNL     1      -1.619   0.656   0.289  1.00  0.00    -0.007 A 
ATOM      5  C   UNL     1      -2.408   1.800   0.542  1.00  0.00     0.036 A 
ATOM      6  C   UNL     1      -1.910   2.795   1.395  1.00  0.00     0.026 A 
ATOM      7  C   UNL     1      -0.715   2.620   2.088  1.00  0.00     0.002 A 
ATOM      8  C   UNL     1       0.021   1.455   1.910  1.00  0.00     0.005 A 
ATOM      9  C   UNL     1      -0.416   0.468   1.011  1.00  0.00    -0.033 A 
ATOM     10  C   UNL     1       0.426  -0.787   0.816  1.00  0.00     0.064 C 
ATOM     11  C   UNL     1      -0.330  -1.885   0.026  1.00  0.00     0.097 C 
ENDROOT
BRANCH  10  12
ATOM     12  C   UNL     1       1.803  -0.503   0.218  1.00  0.00    -0.039 A 
ATOM     13  C   UNL     1       2.962  -0.904   0.904  1.00  0.00     0.004 A 
ATOM     14  C   UNL     1       1.946   0.148  -1.017  1.00  0.00     0.004 A 
ATOM     15  C   UNL     1       4.227  -0.656   0.368  1.00  0.00     0.000 A 
ATOM     16  C   UNL     1       3.212   0.395  -1.550  1.00  0.00     0.000 A 
ATOM     17  C   UNL     1       4.352  -0.006  -0.858  1.00  0.00     0.000 A 
ENDBRANCH  10  12
BRANCH   5  18
ATOM     18  N   UNL     1      -3.580   2.076  -0.183  1.00  0.00    -0.398 N 
ATOM     19  H   UNL     1      -4.094   1.256  -0.482  1.00  0.00     0.156 HD
ATOM     20  H   UNL     1      -4.183   2.758   0.265  1.00  0.00     0.156 HD
ENDBRANCH   5  18
TORSDOF 2
