REMARK SMILES CC1(C)CCC(C)(C)c2c1cc(C(=O)Nc1cc(F)c(C(=O)O)c(F)c1)c(O)c2Cl
REMARK SMILES IDX 16 1 17 2 18 3 19 4 20 5 24 6 25 7 26 8 15 9 13 10 14 11
REMARK SMILES IDX 12 13 1 14 2 15 3 16 4 17 10 18 5 19 9 20 11 21 6 22 29 23
REMARK SMILES IDX 7 24 8 25 27 26 30 27 28 28 21 30 22 31 23 32
REMARK H PARENT 15 12 28 29 23 33
REMARK Flexibility Score: inf
ROOT
ATOM      1  C   UNL     1       4.162  -0.210  -0.103  1.00  0.00     0.047 A 
ATOM      2  C   UNL     1       5.088   0.838  -0.171  1.00  0.00     0.066 A 
ATOM      3  C   UNL     1       6.458   0.571  -0.186  1.00  0.00     0.142 A 
ATOM      4  F   UNL     1       7.303   1.607  -0.286  1.00  0.00    -0.206 F 
ATOM      5  C   UNL     1       6.926  -0.736  -0.129  1.00  0.00     0.131 A 
ATOM      6  C   UNL     1       6.009  -1.777  -0.073  1.00  0.00     0.142 A 
ATOM      7  F   UNL     1       6.421  -3.051  -0.008  1.00  0.00    -0.206 F 
ATOM      8  C   UNL     1       4.635  -1.523  -0.056  1.00  0.00     0.066 A 
ENDROOT
BRANCH   1   9
ATOM      9  N   UNL     1       2.799   0.141  -0.091  1.00  0.00    -0.322 N 
ATOM     10  C   UNL     1       1.702  -0.696  -0.027  1.00  0.00     0.259 C 
ATOM     11  O   UNL     1       1.753  -1.921   0.032  1.00  0.00    -0.269 OA
ATOM     12  H   UNL     1       2.581   1.135  -0.134  1.00  0.00     0.170 HD
BRANCH  10  13
ATOM     13  C   UNL     1       0.353  -0.032  -0.030  1.00  0.00     0.083 A 
ATOM     14  C   UNL     1      -3.266  -2.108   1.408  1.00  0.00     0.016 C 
ATOM     15  C   UNL     1      -3.235  -1.416   0.026  1.00  0.00    -0.010 C 
ATOM     16  C   UNL     1      -3.027  -2.503  -1.058  1.00  0.00     0.016 C 
ATOM     17  C   UNL     1      -4.602  -0.777  -0.271  1.00  0.00     0.012 C 
ATOM     18  C   UNL     1      -2.102  -0.370   0.015  1.00  0.00    -0.036 A 
ATOM     19  C   UNL     1      -4.790   0.499   0.520  1.00  0.00     0.012 C 
ATOM     20  C   UNL     1      -2.327   1.038   0.029  1.00  0.00    -0.016 A 
ATOM     21  C   UNL     1      -0.772  -0.862   0.015  1.00  0.00     0.022 A 
ATOM     22  C   UNL     1      -3.770   1.597   0.118  1.00  0.00    -0.008 C 
ATOM     23  C   UNL     1      -1.176   1.871  -0.067  1.00  0.00     0.087 A 
ATOM     24  C   UNL     1      -3.945   2.684   1.209  1.00  0.00     0.016 C 
ATOM     25  C   UNL     1      -4.191   2.175  -1.253  1.00  0.00     0.016 C 
ATOM     26  C   UNL     1       0.136   1.341  -0.088  1.00  0.00     0.147 A 
ATOM     27  Cl  UNL     1      -1.258   3.604  -0.214  1.00  0.00    -0.080 Cl
BRANCH  26  28
ATOM     28  O   UNL     1       1.214   2.200  -0.168  1.00  0.00    -0.506 OA
ATOM     29  H   UNL     1       0.847   3.107  -0.211  1.00  0.00     0.293 HD
ENDBRANCH  26  28
ENDBRANCH  10  13
ENDBRANCH   1   9
BRANCH   5  30
ATOM     30  C   UNL     1       8.359  -1.035  -0.158  1.00  0.00     0.341 C 
ATOM     31  O   UNL     1       8.904  -1.899  -0.816  1.00  0.00    -0.246 OA
BRANCH  30  32
ATOM     32  O   UNL     1       9.044  -0.249   0.690  1.00  0.00    -0.477 OA
ATOM     33  H   UNL     1       9.974  -0.546   0.596  1.00  0.00     0.297 HD
ENDBRANCH  30  32
ENDBRANCH   5  30
TORSDOF 5
