REMARK SMILES CO[C@]12C[C@@H](COC(=O)c3cncc(Br)c3)CN(C)[C@@H]1Cc1cn(C)c3cccc2c13
REMARK SMILES IDX 6 1 5 2 3 3 4 4 20 5 30 6 18 7 21 8 29 9 31 10 17 11 19 12
REMARK SMILES IDX 22 13 28 14 26 15 23 16 27 17 24 18 25 19 2 20 1 21 7 22
REMARK SMILES IDX 8 23 9 24 10 25 11 26 16 27 12 28 14 29 13 30 15 31
REMARK H PARENT
REMARK Flexibility Score: inf
ROOT
ATOM      1  C   UNL     1       2.498  -1.145   0.985  1.00  0.00     0.238 C 
ENDROOT
BRANCH   1   2
ATOM      2  C   UNL     1       1.376  -0.252   0.438  1.00  0.00     0.044 C 
ATOM      3  C   UNL     1      -1.114   0.300   0.641  1.00  0.00     0.110 C 
ATOM      4  C   UNL     1       0.058  -0.560   1.166  1.00  0.00     0.050 C 
ATOM      5  C   UNL     1      -1.158   0.122  -0.964  1.00  0.00     0.097 C 
ATOM      6  C   UNL     1      -2.467  -0.134   1.214  1.00  0.00    -0.005 A 
ATOM      7  N   UNL     1       0.131   0.350  -1.680  1.00  0.00    -0.299 NA
ATOM      8  C   UNL     1      -2.366   0.891  -1.619  1.00  0.00     0.060 C 
ATOM      9  C   UNL     1      -2.704  -0.664   2.492  1.00  0.00     0.007 A 
ATOM     10  C   UNL     1      -3.596   0.037   0.396  1.00  0.00     0.009 A 
ATOM     11  C   UNL     1       1.211  -0.447  -1.080  1.00  0.00     0.091 C 
ATOM     12  C   UNL     1       0.513   1.752  -1.824  1.00  0.00     0.105 C 
ATOM     13  C   UNL     1      -3.638   0.509  -0.933  1.00  0.00    -0.020 A 
ATOM     14  C   UNL     1      -4.001  -0.996   2.910  1.00  0.00     0.003 A 
ATOM     15  C   UNL     1      -4.878  -0.289   0.803  1.00  0.00     0.048 A 
ATOM     16  C   UNL     1      -4.956   0.495  -1.324  1.00  0.00     0.090 A 
ATOM     17  C   UNL     1      -5.116  -0.813   2.077  1.00  0.00     0.027 A 
ATOM     18  N   UNL     1      -5.699   0.013  -0.266  1.00  0.00    -0.350 N 
ATOM     19  C   UNL     1      -7.133  -0.161  -0.280  1.00  0.00     0.149 C 
BRANCH   3  20
ATOM     20  O   UNL     1      -0.876   1.704   0.891  1.00  0.00    -0.372 OA
ATOM     21  C   UNL     1      -0.963   2.154   2.233  1.00  0.00     0.196 C 
ENDBRANCH   3  20
ENDBRANCH   1   2
BRANCH   1  22
ATOM     22  O   UNL     1       3.761  -0.727   0.437  1.00  0.00    -0.462 OA
BRANCH  22  23
ATOM     23  C   UNL     1       4.422  -1.624  -0.334  1.00  0.00     0.339 C 
ATOM     24  O   UNL     1       4.052  -2.753  -0.608  1.00  0.00    -0.246 OA
BRANCH  23  25
ATOM     25  C   UNL     1       5.688  -1.041  -0.826  1.00  0.00     0.079 A 
ATOM     26  C   UNL     1       6.516  -1.834  -1.613  1.00  0.00     0.126 A 
ATOM     27  C   UNL     1       6.100   0.266  -0.546  1.00  0.00     0.034 A 
ATOM     28  N   UNL     1       7.702  -1.416  -2.125  1.00  0.00    -0.263 NA
ATOM     29  C   UNL     1       7.311   0.717  -1.062  1.00  0.00     0.037 A 
ATOM     30  C   UNL     1       8.072  -0.146  -1.837  1.00  0.00     0.126 A 
ATOM     31  Br  UNL     1       7.905   2.472  -0.711  1.00  0.00    -0.049 Br
ENDBRANCH  23  25
ENDBRANCH  22  23
ENDBRANCH   1  22
TORSDOF 5
