REMARK SMILES Cc1cn([C@H]2C[C@H](N=[N+]=[N-])[C@@H](CO)O2)c(=O)[nH]c1=O
REMARK SMILES IDX 5 1 6 2 7 3 11 4 14 5 4 6 1 7 2 8 3 9 18 10 17 11 19 12
REMARK SMILES IDX 15 13 16 15 8 16 9 17 10 18 12 19 13 20
REMARK H PARENT 17 14 13 21
REMARK Flexibility Score: inf
ROOT
ATOM      1  C   UNL     1      -0.178   0.614  -0.169  1.00  0.00     0.224 C 
ATOM      2  C   UNL     1      -1.175   0.247  -1.259  1.00  0.00     0.067 C 
ATOM      3  C   UNL     1      -2.489   0.662  -0.630  1.00  0.00     0.109 C 
ATOM      4  C   UNL     1      -2.251   0.383   0.861  1.00  0.00     0.155 C 
ATOM      5  O   UNL     1      -0.831   0.438   1.096  1.00  0.00    -0.352 OA
ENDROOT
BRANCH   1   6
ATOM      6  N   UNL     1       1.080  -0.126  -0.183  1.00  0.00    -0.274 N 
ATOM      7  C   UNL     1       4.766   0.696  -0.469  1.00  0.00     0.052 C 
ATOM      8  C   UNL     1       3.464  -0.022  -0.325  1.00  0.00     0.031 C 
ATOM      9  C   UNL     1       2.266   0.574  -0.321  1.00  0.00     0.102 C 
ATOM     10  C   UNL     1       3.509  -1.493  -0.170  1.00  0.00     0.256 C 
ATOM     11  N   UNL     1       2.301  -2.111  -0.028  1.00  0.00    -0.274 N 
ATOM     12  O   UNL     1       4.565  -2.115  -0.173  1.00  0.00    -0.269 OA
ATOM     13  C   UNL     1       1.071  -1.506  -0.024  1.00  0.00     0.330 C 
ATOM     14  H   UNL     1       2.309  -3.112   0.084  1.00  0.00     0.175 HD
ATOM     15  O   UNL     1       0.063  -2.198   0.103  1.00  0.00    -0.248 OA
ENDBRANCH   1   6
BRANCH   3  16
ATOM     16  N   UNL     1      -2.669   2.111  -0.863  1.00  0.00    -0.088 NA
ATOM     17  N   UNL     1      -3.842   2.526  -0.786  1.00  0.00     0.001 N 
ATOM     18  N   UNL     1      -4.913   2.907  -0.710  1.00  0.00    -0.003 NA
ENDBRANCH   3  16
BRANCH   4  19
ATOM     19  C   UNL     1      -2.788  -0.988   1.282  1.00  0.00     0.188 C 
BRANCH  19  20
ATOM     20  O   UNL     1      -4.214  -0.983   1.272  1.00  0.00    -0.394 OA
ATOM     21  H   UNL     1      -4.505  -0.641   2.136  1.00  0.00     0.210 HD
ENDBRANCH  19  20
ENDBRANCH   4  19
TORSDOF 4
