REMARK SMILES C[C@H]1COc2c(N3CCN(C)CC3)c(F)cc3c(=O)c(C(=O)O)cn1c23
REMARK SMILES IDX 1 1 2 2 3 3 4 4 5 5 6 6 14 7 15 8 16 9 17 10 18 11 19 12
REMARK SMILES IDX 20 13 24 14 25 15 26 16 21 17 22 18 23 19 7 21 8 22 13 23
REMARK SMILES IDX 9 24 12 25 10 26 11 27
REMARK H PARENT 23 20
REMARK Flexibility Score: inf
ROOT
ATOM      1  C   UNL     1      -3.591   0.461  -2.753  1.00  0.00     0.035 C 
ATOM      2  C   UNL     1      -2.477  -0.092  -1.859  1.00  0.00     0.122 C 
ATOM      3  C   UNL     1      -1.195   0.695  -2.141  1.00  0.00     0.254 C 
ATOM      4  O   UNL     1      -0.100   0.152  -1.408  1.00  0.00    -0.487 OA
ATOM      5  C   UNL     1      -0.337   0.140  -0.049  1.00  0.00     0.170 A 
ATOM      6  C   UNL     1       0.787   0.145   0.817  1.00  0.00     0.118 A 
ATOM      7  C   UNL     1       0.509   0.100   2.202  1.00  0.00     0.151 A 
ATOM      8  F   UNL     1       1.518   0.144   3.089  1.00  0.00    -0.205 F 
ATOM      9  C   UNL     1      -0.781   0.036   2.711  1.00  0.00     0.056 A 
ATOM     10  C   UNL     1      -1.862   0.005   1.834  1.00  0.00     0.053 A 
ATOM     11  C   UNL     1      -3.233  -0.095   2.391  1.00  0.00     0.204 C 
ATOM     12  O   UNL     1      -3.406   0.007   3.601  1.00  0.00    -0.288 OA
ATOM     13  C   UNL     1      -4.350  -0.316   1.442  1.00  0.00     0.124 C 
ATOM     14  C   UNL     1      -4.047  -0.260   0.134  1.00  0.00     0.106 C 
ATOM     15  N   UNL     1      -2.803   0.005  -0.418  1.00  0.00    -0.337 N 
ATOM     16  C   UNL     1      -1.668   0.053   0.442  1.00  0.00     0.097 A 
ENDROOT
BRANCH  13  17
ATOM     17  C   UNL     1      -5.719  -0.619   1.898  1.00  0.00     0.341 C 
ATOM     18  O   UNL     1      -6.063  -0.989   3.005  1.00  0.00    -0.246 OA
BRANCH  17  19
ATOM     19  O   UNL     1      -6.649  -0.460   0.933  1.00  0.00    -0.477 OA
ATOM     20  H   UNL     1      -7.484  -0.682   1.399  1.00  0.00     0.297 HD
ENDBRANCH  17  19
ENDBRANCH  13  17
BRANCH   6  21
ATOM     21  N   UNL     1       2.133   0.227   0.411  1.00  0.00    -0.364 N 
ATOM     22  C   UNL     1       2.938  -0.973   0.740  1.00  0.00     0.132 C 
ATOM     23  C   UNL     1       2.492   0.789  -0.903  1.00  0.00     0.132 C 
ATOM     24  C   UNL     1       4.449  -0.645   0.651  1.00  0.00     0.105 C 
ATOM     25  C   UNL     1       4.006   1.108  -0.946  1.00  0.00     0.105 C 
ATOM     26  N   UNL     1       4.843  -0.081  -0.661  1.00  0.00    -0.303 NA
ATOM     27  C   UNL     1       6.260   0.274  -0.663  1.00  0.00     0.105 C 
ENDBRANCH   6  21
TORSDOF 3
