REMARK SMILES CC(C)N1CCN(Cc2cnc(-c3cc(-c4cccc5[nH]ccc45)cc4[nH]ncc34)o2)CC1
REMARK SMILES IDX 9 1 10 2 11 3 12 4 31 5 8 6 7 7 4 8 5 9 33 10 6 11 32 12
REMARK SMILES IDX 2 13 1 14 3 15 13 16 14 17 30 18 15 19 26 20 29 21 25 22
REMARK SMILES IDX 27 23 28 24 16 26 17 27 24 28 18 29 20 30 23 31 19 32 21 33
REMARK SMILES IDX 22 34
REMARK H PARENT 27 25 21 35
REMARK Flexibility Score: inf
ROOT
ATOM      1  C   UNL     1       1.262  -2.208   0.429  1.00  0.00     0.138 A 
ATOM      2  C   UNL     1       0.471  -2.763   1.407  1.00  0.00     0.159 A 
ATOM      3  N   UNL     1      -0.837  -2.395   1.216  1.00  0.00    -0.218 NA
ATOM      4  C   UNL     1      -0.806  -1.634   0.136  1.00  0.00     0.227 A 
ATOM      5  O   UNL     1       0.449  -1.478  -0.394  1.00  0.00    -0.440 OA
ENDROOT
BRANCH   1   6
ATOM      6  C   UNL     1       2.712  -2.231   0.113  1.00  0.00     0.161 C 
BRANCH   6   7
ATOM      7  N   UNL     1       3.544  -1.809   1.252  1.00  0.00    -0.293 NA
ATOM      8  N   UNL     1       5.390   0.378   0.274  1.00  0.00    -0.298 NA
ATOM      9  C   UNL     1       3.959   0.616   0.568  1.00  0.00     0.100 C 
ATOM     10  C   UNL     1       5.601  -1.049  -0.057  1.00  0.00     0.100 C 
ATOM     11  C   UNL     1       3.367  -0.382   1.592  1.00  0.00     0.100 C 
ATOM     12  C   UNL     1       4.976  -2.026   0.970  1.00  0.00     0.100 C 
BRANCH   8  13
ATOM     13  C   UNL     1       5.909   1.285  -0.781  1.00  0.00     0.050 C 
ATOM     14  C   UNL     1       7.413   1.079  -1.025  1.00  0.00     0.024 C 
ATOM     15  C   UNL     1       5.693   2.768  -0.435  1.00  0.00     0.024 C 
ENDBRANCH   8  13
ENDBRANCH   6   7
ENDBRANCH   1   6
BRANCH   4  16
ATOM     16  C   UNL     1      -1.907  -0.943  -0.521  1.00  0.00     0.049 A 
ATOM     17  C   UNL     1      -3.176  -0.883   0.093  1.00  0.00     0.023 A 
ATOM     18  C   UNL     1      -1.746  -0.322  -1.779  1.00  0.00     0.032 A 
ATOM     19  C   UNL     1      -4.268  -0.226  -0.497  1.00  0.00    -0.015 A 
ATOM     20  C   UNL     1      -2.840   0.317  -2.358  1.00  0.00     0.066 A 
ATOM     21  C   UNL     1      -0.710  -0.137  -2.729  1.00  0.00     0.144 A 
ATOM     22  C   UNL     1      -4.101   0.380  -1.754  1.00  0.00     0.037 A 
ATOM     23  N   UNL     1      -2.393   0.813  -3.555  1.00  0.00    -0.278 N 
ATOM     24  N   UNL     1      -1.099   0.555  -3.804  1.00  0.00    -0.183 NA
ATOM     25  H   UNL     1      -2.922   1.336  -4.244  1.00  0.00     0.190 HD
BRANCH  19  26
ATOM     26  C   UNL     1      -5.568  -0.185   0.183  1.00  0.00    -0.009 A 
ATOM     27  C   UNL     1      -6.283  -1.363   0.477  1.00  0.00     0.009 A 
ATOM     28  C   UNL     1      -6.139   1.059   0.564  1.00  0.00     0.007 A 
ATOM     29  C   UNL     1      -7.522  -1.321   1.115  1.00  0.00     0.003 A 
ATOM     30  C   UNL     1      -7.382   1.064   1.202  1.00  0.00     0.046 A 
ATOM     31  C   UNL     1      -5.730   2.424   0.464  1.00  0.00     0.028 A 
ATOM     32  C   UNL     1      -8.095  -0.105   1.488  1.00  0.00     0.027 A 
ATOM     33  N   UNL     1      -7.707   2.377   1.460  1.00  0.00    -0.361 N 
ATOM     34  C   UNL     1      -6.716   3.209   1.013  1.00  0.00     0.083 A 
ATOM     35  H   UNL     1      -8.557   2.677   1.918  1.00  0.00     0.166 HD
ENDBRANCH  19  26
ENDBRANCH   4  16
TORSDOF 5
