REMARK SMILES Cc1ccc(Nc2nccc(N(C)c3ccc4c(C)n(C)nc4c3)n2)cc1S(N)(=O)=O
REMARK SMILES IDX 6 1 5 3 1 4 2 5 3 6 27 7 4 8 26 9 28 10 30 11 31 12 29 13
REMARK SMILES IDX 7 16 8 17 25 18 9 19 11 20 10 21 12 22 13 23 14 24 15 25
REMARK SMILES IDX 24 26 16 27 23 28 17 29 22 30 18 31 20 32 19 33 21 34
REMARK H PARENT 6 2 29 14 29 15
REMARK Flexibility Score: inf
ROOT
ATOM      1  N   UNL     1       2.775   0.489  -0.056  1.00  0.00    -0.324 N 
ATOM      2  H   UNL     1       2.562   1.401   0.326  1.00  0.00     0.170 HD
ENDROOT
BRANCH   1   3
ATOM      3  C   UNL     1       4.125   0.135  -0.136  1.00  0.00     0.042 A 
ATOM      4  C   UNL     1       8.355  -0.905  -0.254  1.00  0.00     0.046 C 
ATOM      5  C   UNL     1       6.904  -0.527  -0.157  1.00  0.00    -0.031 A 
ATOM      6  C   UNL     1       5.967  -1.284  -0.873  1.00  0.00     0.007 A 
ATOM      7  C   UNL     1       6.428   0.569   0.580  1.00  0.00     0.087 A 
ATOM      8  C   UNL     1       4.603  -0.964  -0.850  1.00  0.00     0.026 A 
ATOM      9  C   UNL     1       5.059   0.890   0.587  1.00  0.00     0.048 A 
BRANCH   7  10
ATOM     10  S   UNL     1       7.518   1.602   1.539  1.00  0.00     0.238 S 
ATOM     11  O   UNL     1       8.741   1.817   0.805  1.00  0.00    -0.207 OA
ATOM     12  O   UNL     1       6.752   2.699   2.087  1.00  0.00    -0.207 OA
BRANCH  10  13
ATOM     13  N   UNL     1       7.853   0.611   2.862  1.00  0.00    -0.225 NA
ATOM     14  H   UNL     1       7.480  -0.332   2.756  1.00  0.00     0.137 HD
ATOM     15  H   UNL     1       7.491   1.065   3.703  1.00  0.00     0.137 HD
ENDBRANCH  10  13
ENDBRANCH   7  10
ENDBRANCH   1   3
BRANCH   1  16
ATOM     16  C   UNL     1       1.602  -0.054  -0.575  1.00  0.00     0.229 A 
ATOM     17  N   UNL     1       1.579  -1.252  -1.169  1.00  0.00    -0.221 NA
ATOM     18  N   UNL     1       0.510   0.712  -0.412  1.00  0.00    -0.195 NA
ATOM     19  C   UNL     1       0.395  -1.679  -1.633  1.00  0.00     0.119 A 
ATOM     20  C   UNL     1      -0.678   0.262  -0.870  1.00  0.00     0.138 A 
ATOM     21  C   UNL     1      -0.765  -0.959  -1.513  1.00  0.00     0.067 A 
BRANCH  20  22
ATOM     22  N   UNL     1      -1.847   1.061  -0.743  1.00  0.00    -0.329 N 
ATOM     23  C   UNL     1      -1.600   2.361  -0.107  1.00  0.00     0.152 C 
BRANCH  22  24
ATOM     24  C   UNL     1      -3.151   0.565  -0.427  1.00  0.00     0.044 A 
ATOM     25  C   UNL     1      -3.307  -0.498   0.534  1.00  0.00     0.027 A 
ATOM     26  C   UNL     1      -4.265   1.157  -1.078  1.00  0.00     0.057 A 
ATOM     27  C   UNL     1      -4.545  -1.056   0.921  1.00  0.00     0.014 A 
ATOM     28  C   UNL     1      -5.509   0.620  -0.711  1.00  0.00     0.095 A 
ATOM     29  C   UNL     1      -5.602  -0.444   0.255  1.00  0.00     0.023 A 
ATOM     30  N   UNL     1      -6.742   0.946  -1.129  1.00  0.00    -0.173 NA
ATOM     31  C   UNL     1      -6.934  -0.744   0.407  1.00  0.00     0.043 A 
ATOM     32  N   UNL     1      -7.568   0.116  -0.460  1.00  0.00    -0.272 N 
ATOM     33  C   UNL     1      -7.654  -1.728   1.252  1.00  0.00     0.067 C 
ATOM     34  C   UNL     1      -8.991   0.217  -0.699  1.00  0.00     0.174 C 
ENDBRANCH  22  24
ENDBRANCH  20  22
ENDBRANCH   1  16
TORSDOF 6
