REMARK SMILES CC1(C)S[C@@H]2[C@H](NC(=O)C(C(=O)O)c3ccccc3)C(=O)N2[C@H]1C(=O)O
REMARK SMILES IDX 7 1 8 2 9 3 6 5 1 6 2 7 3 8 4 9 23 10 5 11 22 12 20 13 21 14
REMARK SMILES IDX 24 15 25 16 26 17 10 19 11 20 12 21 13 22 14 24 15 25 19 26
REMARK SMILES IDX 16 27 18 28 17 29
REMARK H PARENT 7 4 26 18 13 23
REMARK Flexibility Score: inf
ROOT
ATOM      1  N   UNL     1       0.691  -1.508  -1.017  1.00  0.00    -0.341 N 
ATOM      2  C   UNL     1       1.765  -2.039  -0.328  1.00  0.00     0.239 C 
ATOM      3  O   UNL     1       1.615  -3.009   0.414  1.00  0.00    -0.274 OA
ATOM      4  H   UNL     1       0.821  -0.648  -1.542  1.00  0.00     0.164 HD
ENDROOT
BRANCH   1   5
ATOM      5  C   UNL     1      -0.688  -2.022  -0.797  1.00  0.00     0.205 C 
ATOM      6  C   UNL     1      -2.329   2.096   1.642  1.00  0.00     0.026 C 
ATOM      7  C   UNL     1      -2.484   0.584   1.467  1.00  0.00     0.044 C 
ATOM      8  C   UNL     1      -3.269  -0.007   2.645  1.00  0.00     0.026 C 
ATOM      9  S   UNL     1      -0.793  -0.180   1.458  1.00  0.00    -0.125 SA
ATOM     10  C   UNL     1      -3.044   0.218   0.079  1.00  0.00     0.211 C 
ATOM     11  C   UNL     1      -1.402  -1.638   0.521  1.00  0.00     0.176 C 
ATOM     12  N   UNL     1      -2.506  -1.091  -0.292  1.00  0.00    -0.311 N 
ATOM     13  C   UNL     1      -1.822  -1.216  -1.471  1.00  0.00     0.250 C 
ATOM     14  O   UNL     1      -2.017  -0.717  -2.555  1.00  0.00    -0.272 OA
BRANCH  10  15
ATOM     15  C   UNL     1      -4.565   0.199   0.015  1.00  0.00     0.327 C 
ATOM     16  O   UNL     1      -5.299  -0.774   0.083  1.00  0.00    -0.250 OA
BRANCH  15  17
ATOM     17  O   UNL     1      -5.095   1.435  -0.091  1.00  0.00    -0.480 OA
ATOM     18  H   UNL     1      -6.062   1.274  -0.151  1.00  0.00     0.296 HD
ENDBRANCH  15  17
ENDBRANCH  10  15
ENDBRANCH   1   5
BRANCH   2  19
ATOM     19  C   UNL     1       3.128  -1.427  -0.642  1.00  0.00     0.218 C 
BRANCH  19  20
ATOM     20  C   UNL     1       4.162  -1.823   0.390  1.00  0.00     0.320 C 
ATOM     21  O   UNL     1       4.220  -1.474   1.559  1.00  0.00    -0.251 OA
BRANCH  20  22
ATOM     22  O   UNL     1       5.113  -2.646  -0.108  1.00  0.00    -0.480 OA
ATOM     23  H   UNL     1       5.686  -2.829   0.667  1.00  0.00     0.296 HD
ENDBRANCH  20  22
ENDBRANCH  19  20
BRANCH  19  24
ATOM     24  C   UNL     1       3.093   0.084  -0.850  1.00  0.00    -0.024 A 
ATOM     25  C   UNL     1       3.429   0.629  -2.100  1.00  0.00     0.005 A 
ATOM     26  C   UNL     1       2.703   0.953   0.182  1.00  0.00     0.005 A 
ATOM     27  C   UNL     1       3.362   2.007  -2.315  1.00  0.00     0.000 A 
ATOM     28  C   UNL     1       2.635   2.329  -0.038  1.00  0.00     0.000 A 
ATOM     29  C   UNL     1       2.963   2.856  -1.285  1.00  0.00     0.000 A 
ENDBRANCH  19  24
ENDBRANCH   2  19
TORSDOF 7
