REMARK SMILES COc1ncc(-c2ccc3nccc(-c4ccnnc4)c3c2)cc1NS(=O)(=O)c1ccc(F)cc1F
REMARK SMILES IDX 3 1 24 2 23 3 6 4 5 5 4 6 2 7 1 8 25 9 26 11 27 12 28 13
REMARK SMILES IDX 29 14 35 15 30 16 36 17 34 18 31 19 32 20 33 21 7 22 22 23
REMARK SMILES IDX 8 24 21 25 9 26 14 27 10 28 13 29 11 30 12 31 15 32 20 33
REMARK SMILES IDX 16 34 19 35 17 36 18 37
REMARK H PARENT 25 10
REMARK Flexibility Score: inf
ROOT
ATOM      1  C   UNL     1       2.033   1.528   1.076  1.00  0.00     0.238 A 
ATOM      2  C   UNL     1       1.877   0.285   1.695  1.00  0.00     0.112 A 
ATOM      3  C   UNL     1       0.837  -0.537   1.273  1.00  0.00     0.042 A 
ATOM      4  C   UNL     1      -0.024  -0.115   0.251  1.00  0.00     0.002 A 
ATOM      5  C   UNL     1       0.226   1.150  -0.291  1.00  0.00     0.124 A 
ATOM      6  N   UNL     1       1.227   1.981   0.094  1.00  0.00    -0.220 NA
ENDROOT
BRANCH   1   7
ATOM      7  O   UNL     1       3.102   2.301   1.500  1.00  0.00    -0.480 OA
ATOM      8  C   UNL     1       3.212   3.532   0.792  1.00  0.00     0.280 C 
ENDBRANCH   1   7
BRANCH   2   9
ATOM      9  N   UNL     1       2.816  -0.168   2.677  1.00  0.00    -0.274 N 
ATOM     10  H   UNL     1       3.299   0.583   3.175  1.00  0.00     0.180 HD
BRANCH   9  11
ATOM     11  S   UNL     1       3.916  -1.369   2.209  1.00  0.00     0.264 S 
ATOM     12  O   UNL     1       4.898  -1.433   3.273  1.00  0.00    -0.201 OA
ATOM     13  O   UNL     1       3.193  -2.555   1.807  1.00  0.00    -0.201 OA
BRANCH  11  14
ATOM     14  C   UNL     1       4.731  -0.680   0.799  1.00  0.00     0.123 A 
ATOM     15  C   UNL     1       4.237  -0.911  -0.482  1.00  0.00     0.146 A 
ATOM     16  C   UNL     1       5.905   0.066   0.977  1.00  0.00     0.028 A 
ATOM     17  F   UNL     1       3.118  -1.616  -0.687  1.00  0.00    -0.205 F 
ATOM     18  C   UNL     1       4.887  -0.381  -1.592  1.00  0.00     0.080 A 
ATOM     19  C   UNL     1       6.558   0.597  -0.136  1.00  0.00     0.041 A 
ATOM     20  C   UNL     1       6.041   0.370  -1.409  1.00  0.00     0.126 A 
ATOM     21  F   UNL     1       6.669   0.884  -2.474  1.00  0.00    -0.207 F 
ENDBRANCH  11  14
ENDBRANCH   9  11
ENDBRANCH   2   9
BRANCH   4  22
ATOM     22  C   UNL     1      -1.116  -0.970  -0.238  1.00  0.00    -0.016 A 
ATOM     23  C   UNL     1      -2.424  -0.479  -0.381  1.00  0.00     0.019 A 
ATOM     24  C   UNL     1      -0.889  -2.306  -0.579  1.00  0.00     0.011 A 
ATOM     25  C   UNL     1      -3.492  -1.289  -0.852  1.00  0.00     0.009 A 
ATOM     26  C   UNL     1      -1.933  -3.113  -1.044  1.00  0.00     0.029 A 
ATOM     27  C   UNL     1      -4.828  -0.830  -1.009  1.00  0.00    -0.006 A 
ATOM     28  C   UNL     1      -3.225  -2.633  -1.187  1.00  0.00     0.071 A 
ATOM     29  C   UNL     1      -5.800  -1.720  -1.479  1.00  0.00     0.029 A 
ATOM     30  N   UNL     1      -4.168  -3.475  -1.640  1.00  0.00    -0.256 NA
ATOM     31  C   UNL     1      -5.425  -3.013  -1.777  1.00  0.00     0.112 A 
BRANCH  27  32
ATOM     32  C   UNL     1      -5.230   0.546  -0.697  1.00  0.00     0.004 A 
ATOM     33  C   UNL     1      -5.163   1.555  -1.650  1.00  0.00     0.144 A 
ATOM     34  C   UNL     1      -5.695   0.900   0.568  1.00  0.00     0.032 A 
ATOM     35  N   UNL     1      -5.515   2.834  -1.396  1.00  0.00    -0.159 NA
ATOM     36  C   UNL     1      -6.049   2.216   0.794  1.00  0.00     0.136 A 
ATOM     37  N   UNL     1      -5.963   3.167  -0.157  1.00  0.00    -0.159 NA
ENDBRANCH  27  32
ENDBRANCH   4  22
TORSDOF 6
