REMARK SMILES C=C[C@H]1CN2CC[C@H]1C[C@@H]2[C@@H](O)c1ccnc2ccc(OC)cc12
REMARK SMILES IDX 11 1 10 2 3 3 4 4 8 5 5 6 7 7 9 8 6 9 2 10 1 11 12 12 13 14
REMARK SMILES IDX 14 15 24 16 15 17 17 18 23 19 16 20 18 21 20 22 19 23 21 24
REMARK SMILES IDX 22 25
REMARK H PARENT 12 13
REMARK Flexibility Score: inf
ROOT
ATOM      1  C   UNL     1       0.417  -1.658   1.232  1.00  0.00     0.162 C 
ENDROOT
BRANCH   1   2
ATOM      2  C   UNL     1      -0.912  -0.859   1.471  1.00  0.00     0.090 C 
ATOM      3  C   UNL     1      -2.863  -0.007  -0.657  1.00  0.00     0.028 C 
ATOM      4  C   UNL     1      -2.496  -1.471  -0.300  1.00  0.00     0.092 C 
ATOM      5  C   UNL     1      -2.462   0.887   0.543  1.00  0.00    -0.000 C 
ATOM      6  N   UNL     1      -2.159  -1.642   1.141  1.00  0.00    -0.297 NA
ATOM      7  C   UNL     1      -3.356   0.476   1.729  1.00  0.00     0.020 C 
ATOM      8  C   UNL     1      -0.999   0.583   0.932  1.00  0.00     0.026 C 
ATOM      9  C   UNL     1      -3.276  -1.049   1.926  1.00  0.00     0.085 C 
BRANCH   3  10
ATOM     10  C   UNL     1      -2.231   0.431  -1.957  1.00  0.00    -0.030 C 
ATOM     11  C   UNL     1      -2.921   0.913  -2.999  1.00  0.00     0.004 C 
ENDBRANCH   3  10
ENDBRANCH   1   2
BRANCH   1  12
ATOM     12  O   UNL     1       0.143  -3.053   1.483  1.00  0.00    -0.387 OA
ATOM     13  H   UNL     1      -0.836  -3.109   1.503  1.00  0.00     0.211 HD
ENDBRANCH   1  12
BRANCH   1  14
ATOM     14  C   UNL     1       1.138  -1.515  -0.097  1.00  0.00    -0.007 A 
ATOM     15  C   UNL     1       0.907  -2.452  -1.113  1.00  0.00     0.027 A 
ATOM     16  C   UNL     1       2.069  -0.465  -0.352  1.00  0.00     0.010 A 
ATOM     17  C   UNL     1       1.548  -2.306  -2.326  1.00  0.00     0.112 A 
ATOM     18  C   UNL     1       2.662  -0.414  -1.636  1.00  0.00     0.071 A 
ATOM     19  C   UNL     1       2.440   0.530   0.588  1.00  0.00     0.057 A 
ATOM     20  N   UNL     1       2.401  -1.303  -2.604  1.00  0.00    -0.256 NA
ATOM     21  C   UNL     1       3.561   0.602  -1.925  1.00  0.00     0.033 A 
ATOM     22  C   UNL     1       3.349   1.546   0.278  1.00  0.00     0.119 A 
ATOM     23  C   UNL     1       3.910   1.580  -0.989  1.00  0.00     0.048 A 
BRANCH  22  24
ATOM     24  O   UNL     1       3.590   2.429   1.293  1.00  0.00    -0.497 OA
ATOM     25  C   UNL     1       4.535   3.461   1.036  1.00  0.00     0.278 C 
ENDBRANCH  22  24
ENDBRANCH   1  14
TORSDOF 5
