REMARK SMILES COC(=O)[C@H]1[C@@H](OC(=O)c2ccccc2)C[C@@H]2CC[C@H]1N2C
REMARK SMILES IDX 5 1 6 2 16 3 17 4 18 5 19 6 20 7 21 8 22 9 3 10 4 11 2 12
REMARK SMILES IDX 1 13 7 14 8 15 9 16 10 17 11 18 15 19 12 20 14 21 13 22
REMARK H PARENT
REMARK Flexibility Score: inf
ROOT
ATOM      1  C   UNL     1      -1.031  -0.987   0.307  1.00  0.00     0.157 C 
ATOM      2  C   UNL     1      -0.135   0.181   0.767  1.00  0.00     0.194 C 
ATOM      3  C   UNL     1      -0.743   1.550   0.413  1.00  0.00     0.065 C 
ATOM      4  C   UNL     1      -2.256   1.602   0.702  1.00  0.00     0.060 C 
ATOM      5  C   UNL     1      -2.586   1.182   2.139  1.00  0.00     0.021 C 
ATOM      6  C   UNL     1      -2.766  -0.338   2.065  1.00  0.00     0.022 C 
ATOM      7  C   UNL     1      -2.524  -0.691   0.590  1.00  0.00     0.074 C 
ATOM      8  N   UNL     1      -2.873   0.552  -0.126  1.00  0.00    -0.299 NA
ATOM      9  C   UNL     1      -4.313   0.732  -0.298  1.00  0.00     0.106 C 
ENDROOT
BRANCH   1  10
ATOM     10  C   UNL     1      -0.851  -1.345  -1.161  1.00  0.00     0.314 C 
ATOM     11  O   UNL     1      -0.275  -0.680  -2.010  1.00  0.00    -0.252 OA
BRANCH  10  12
ATOM     12  O   UNL     1      -1.412  -2.572  -1.398  1.00  0.00    -0.469 OA
ATOM     13  C   UNL     1      -1.311  -3.001  -2.756  1.00  0.00     0.282 C 
ENDBRANCH  10  12
ENDBRANCH   1  10
BRANCH   2  14
ATOM     14  O   UNL     1       1.198   0.037   0.246  1.00  0.00    -0.458 OA
BRANCH  14  15
ATOM     15  C   UNL     1       2.187   0.692   0.897  1.00  0.00     0.338 C 
ATOM     16  O   UNL     1       2.065   1.331   1.930  1.00  0.00    -0.246 OA
BRANCH  15  17
ATOM     17  C   UNL     1       3.480   0.507   0.184  1.00  0.00     0.060 A 
ATOM     18  C   UNL     1       3.551  -0.032  -1.108  1.00  0.00     0.015 A 
ATOM     19  C   UNL     1       4.657   0.903   0.833  1.00  0.00     0.015 A 
ATOM     20  C   UNL     1       4.789  -0.178  -1.738  1.00  0.00     0.001 A 
ATOM     21  C   UNL     1       5.893   0.754   0.199  1.00  0.00     0.001 A 
ATOM     22  C   UNL     1       5.957   0.213  -1.085  1.00  0.00     0.000 A 
ENDBRANCH  15  17
ENDBRANCH  14  15
ENDBRANCH   2  14
TORSDOF 5
