REMARK SMILES O=C1[C@@H]2[C@H]3CC[C@H](C3)[C@@H]2C(=O)N1C[C@@H]1CCCC[C@H]1CN1CCN(c2nsc3ccccc23)CC1
REMARK SMILES IDX 14 1 15 2 16 3 17 4 18 5 19 6 13 7 12 8 1 9 2 10 3 11 4 12
REMARK SMILES IDX 9 13 10 14 5 15 8 16 7 17 11 18 6 19 20 20 21 21 22 22 35 23
REMARK SMILES IDX 23 24 34 25 24 26 25 27 26 28 33 29 27 30 28 31 32 32 29 33
REMARK SMILES IDX 31 34 30 35
REMARK H PARENT
REMARK Flexibility Score: inf
ROOT
ATOM      1  C   UNL     1       1.639   0.348  -0.779  1.00  0.00     0.013 C 
ATOM      2  C   UNL     1       2.428   0.599  -2.082  1.00  0.00     0.006 C 
ATOM      3  C   UNL     1       2.059  -0.383  -3.185  1.00  0.00     0.000 C 
ATOM      4  C   UNL     1       0.570  -0.334  -3.473  1.00  0.00     0.000 C 
ATOM      5  C   UNL     1      -0.244  -0.603  -2.214  1.00  0.00     0.005 C 
ATOM      6  C   UNL     1       0.099   0.356  -1.055  1.00  0.00     0.008 C 
ENDROOT
BRANCH   1   7
ATOM      7  C   UNL     1       2.060   1.387   0.290  1.00  0.00     0.132 C 
BRANCH   7   8
ATOM      8  N   UNL     1       3.448   1.251   0.708  1.00  0.00    -0.282 N 
ATOM      9  O   UNL     1       4.370   2.965  -0.548  1.00  0.00    -0.274 OA
ATOM     10  C   UNL     1       4.462   2.050   0.257  1.00  0.00     0.233 C 
ATOM     11  C   UNL     1       5.751   1.613   0.900  1.00  0.00     0.095 C 
ATOM     12  C   UNL     1       6.753   0.971  -0.079  1.00  0.00     0.002 C 
ATOM     13  C   UNL     1       5.352   0.440   1.805  1.00  0.00     0.095 C 
ATOM     14  C   UNL     1       3.871   0.284   1.579  1.00  0.00     0.233 C 
ATOM     15  C   UNL     1       8.058   0.692   0.693  1.00  0.00     0.005 C 
ATOM     16  C   UNL     1       6.213  -0.451  -0.252  1.00  0.00     0.009 C 
ATOM     17  C   UNL     1       6.191  -0.728   1.253  1.00  0.00     0.002 C 
ATOM     18  O   UNL     1       3.181  -0.585   2.094  1.00  0.00    -0.274 OA
ATOM     19  C   UNL     1       7.666  -0.473   1.621  1.00  0.00     0.005 C 
ENDBRANCH   7   8
ENDBRANCH   1   7
BRANCH   6  20
ATOM     20  C   UNL     1      -0.723   0.032   0.229  1.00  0.00     0.088 C 
BRANCH  20  21
ATOM     21  N   UNL     1      -2.178   0.040   0.017  1.00  0.00    -0.300 NA
ATOM     22  C   UNL     1      -2.734  -1.303  -0.296  1.00  0.00     0.106 C 
ATOM     23  C   UNL     1      -2.893   0.644   1.162  1.00  0.00     0.106 C 
ATOM     24  C   UNL     1      -3.708  -1.876   0.760  1.00  0.00     0.133 C 
ATOM     25  C   UNL     1      -4.427   0.471   1.078  1.00  0.00     0.133 C 
ATOM     26  N   UNL     1      -4.838  -0.956   1.018  1.00  0.00    -0.353 N 
BRANCH  26  27
ATOM     27  C   UNL     1      -6.012  -1.203   0.337  1.00  0.00     0.150 A 
ATOM     28  N   UNL     1      -6.068  -1.928  -0.781  1.00  0.00    -0.174 NA
ATOM     29  C   UNL     1      -7.295  -0.694   0.810  1.00  0.00     0.037 A 
ATOM     30  S   UNL     1      -7.606  -1.938  -1.365  1.00  0.00    -0.034 S 
ATOM     31  C   UNL     1      -8.305  -1.023  -0.097  1.00  0.00     0.057 A 
ATOM     32  C   UNL     1      -7.674   0.025   1.973  1.00  0.00     0.013 A 
ATOM     33  C   UNL     1      -9.644  -0.633   0.084  1.00  0.00     0.021 A 
ATOM     34  C   UNL     1      -9.005   0.413   2.169  1.00  0.00     0.001 A 
ATOM     35  C   UNL     1      -9.975   0.095   1.229  1.00  0.00     0.002 A 
ENDBRANCH  26  27
ENDBRANCH  20  21
ENDBRANCH   6  20
TORSDOF 5
