REMARK SMILES CCCCOc1ccc(C(=O)CCN2CCCCC2)cc1
REMARK SMILES IDX 6 1 7 2 8 3 9 4 20 5 21 6 5 7 4 8 3 9 2 10 1 11 10 12 11 13
REMARK SMILES IDX 12 14 13 15 14 16 15 17 19 18 16 19 18 20 17 21
REMARK H PARENT
REMARK Flexibility Score: inf
ROOT
ATOM      1  C   UNL     1       2.988  -0.171   0.179  1.00  0.00     0.119 A 
ATOM      2  C   UNL     1       1.819  -0.667  -0.395  1.00  0.00     0.047 A 
ATOM      3  C   UNL     1       0.675  -0.851   0.393  1.00  0.00     0.015 A 
ATOM      4  C   UNL     1       0.696  -0.537   1.760  1.00  0.00     0.018 A 
ATOM      5  C   UNL     1       1.875  -0.029   2.324  1.00  0.00     0.015 A 
ATOM      6  C   UNL     1       3.009   0.164   1.534  1.00  0.00     0.047 A 
ENDROOT
BRANCH   1   7
ATOM      7  O   UNL     1       4.138   0.092  -0.515  1.00  0.00    -0.494 OA
BRANCH   7   8
ATOM      8  C   UNL     1       4.505  -0.905  -1.479  1.00  0.00     0.229 C 
BRANCH   8   9
ATOM      9  C   UNL     1       5.922  -0.606  -1.962  1.00  0.00     0.041 C 
BRANCH   9  10
ATOM     10  C   UNL     1       5.966   0.656  -2.829  1.00  0.00     0.000 C 
ATOM     11  C   UNL     1       7.386   0.984  -3.272  1.00  0.00     0.004 C 
ENDBRANCH   9  10
ENDBRANCH   8   9
ENDBRANCH   7   8
ENDBRANCH   1   7
BRANCH   4  12
ATOM     12  C   UNL     1      -0.494  -0.692   2.653  1.00  0.00     0.164 C 
ATOM     13  O   UNL     1      -0.387  -0.426   3.852  1.00  0.00    -0.294 OA
BRANCH  12  14
ATOM     14  C   UNL     1      -1.828  -1.118   2.081  1.00  0.00     0.096 C 
BRANCH  14  15
ATOM     15  C   UNL     1      -2.589   0.116   1.596  1.00  0.00     0.092 C 
BRANCH  15  16
ATOM     16  N   UNL     1      -3.840  -0.229   0.901  1.00  0.00    -0.303 NA
ATOM     17  C   UNL     1      -4.273   0.889   0.043  1.00  0.00     0.084 C 
ATOM     18  C   UNL     1      -4.895  -0.705   1.812  1.00  0.00     0.084 C 
ATOM     19  C   UNL     1      -5.746   0.789  -0.344  1.00  0.00     0.016 C 
ATOM     20  C   UNL     1      -5.941   0.356   2.147  1.00  0.00     0.016 C 
ATOM     21  C   UNL     1      -6.645   0.863   0.890  1.00  0.00     0.003 C 
ENDBRANCH  15  16
ENDBRANCH  14  15
ENDBRANCH  12  14
ENDBRANCH   4  12
TORSDOF 8
