REMARK SMILES NC(N)=Nc1nc(CSCC/C(N)=N/S(N)(=O)=O)cs1
REMARK SMILES IDX 10 1 9 2 8 3 7 4 5 5 6 6 20 7 19 8 4 9 1 10 2 11 3 14 11 17
REMARK SMILES IDX 12 18 13 19 14 20 15 23 17 24 18 25 16 26
REMARK H PARENT 1 12 1 13 3 15 3 16 13 21 13 22 16 27 16 28
REMARK Flexibility Score: inf
ROOT
ATOM      1  C   UNL     1      -1.920  -0.323   0.757  1.00  0.00     0.078 C 
ENDROOT
BRANCH   1   2
ATOM      2  S   UNL     1      -0.677  -0.701   2.037  1.00  0.00    -0.155 SA
BRANCH   2   3
ATOM      3  C   UNL     1       0.722  -1.189   0.971  1.00  0.00     0.126 C 
BRANCH   3   4
ATOM      4  C   UNL     1       2.033  -1.081   1.688  1.00  0.00     0.064 A 
ATOM      5  C   UNL     1       4.138  -0.340   1.851  1.00  0.00     0.212 A 
ATOM      6  N   UNL     1       3.048  -0.331   1.103  1.00  0.00    -0.222 NA
ATOM      7  S   UNL     1       3.989  -1.272   3.300  1.00  0.00    -0.103 S 
ATOM      8  C   UNL     1       2.380  -1.671   2.887  1.00  0.00     0.093 A 
BRANCH   5   9
ATOM      9  N   UNL     1       5.329   0.264   1.609  1.00  0.00    -0.186 NA
ATOM     10  N   UNL     1       4.381   1.783   0.007  1.00  0.00    -0.370 N 
ATOM     11  C   UNL     1       5.369   1.223   0.749  1.00  0.00     0.193 C 
ATOM     12  H   UNL     1       3.533   1.213   0.050  1.00  0.00     0.159 HD
ATOM     13  H   UNL     1       4.660   1.908  -0.959  1.00  0.00     0.159 HD
ATOM     14  N   UNL     1       6.538   1.856   0.486  1.00  0.00    -0.370 N 
ATOM     15  H   UNL     1       6.419   2.860   0.414  1.00  0.00     0.159 HD
ATOM     16  H   UNL     1       7.236   1.622   1.185  1.00  0.00     0.159 HD
ENDBRANCH   5   9
ENDBRANCH   3   4
ENDBRANCH   2   3
ENDBRANCH   1   2
BRANCH   1  17
ATOM     17  C   UNL     1      -2.347  -1.557  -0.030  1.00  0.00     0.086 C 
BRANCH  17  18
ATOM     18  C   UNL     1      -3.457  -1.182  -1.008  1.00  0.00     0.115 C 
ATOM     19  N   UNL     1      -4.688  -1.740  -0.771  1.00  0.00    -0.386 N 
ATOM     20  N   UNL     1      -3.116  -0.376  -1.954  1.00  0.00    -0.137 NA
ATOM     21  H   UNL     1      -4.720  -2.606  -0.244  1.00  0.00     0.157 HD
ATOM     22  H   UNL     1      -5.320  -1.755  -1.573  1.00  0.00     0.157 HD
BRANCH  20  23
ATOM     23  S   UNL     1      -4.146   0.162  -3.059  1.00  0.00     0.318 S 
ATOM     24  O   UNL     1      -5.137  -0.847  -3.373  1.00  0.00    -0.187 OA
ATOM     25  O   UNL     1      -3.405   0.815  -4.113  1.00  0.00    -0.187 OA
BRANCH  23  26
ATOM     26  N   UNL     1      -5.009   1.416  -2.357  1.00  0.00    -0.210 NA
ATOM     27  H   UNL     1      -4.476   2.275  -2.490  1.00  0.00     0.139 HD
ATOM     28  H   UNL     1      -5.924   1.472  -2.803  1.00  0.00     0.139 HD
ENDBRANCH  23  26
ENDBRANCH  20  23
ENDBRANCH  17  18
ENDBRANCH   1  17
TORSDOF 8
