REMARK SMILES C[C@@H](c1ccc2nccn2c1)N1NN=C2N=C[C@@H](c3cnn(C)c3)N=C21
REMARK SMILES IDX 12 1 26 2 15 3 14 4 13 5 16 6 25 7 18 8 17 9 2 11 1 12 3 13
REMARK SMILES IDX 4 14 11 15 5 16 10 17 6 18 9 19 7 20 8 21 19 22 24 23 20 24
REMARK SMILES IDX 22 25 21 26 23 27
REMARK H PARENT 13 10
REMARK Flexibility Score: inf
ROOT
ATOM      1  N   UNL     1      20.905  29.969  55.658  1.00  0.00    -0.244 N 
ATOM      2  C   UNL     1      21.927  29.685  56.507  1.00  0.00     0.193 C 
ATOM      3  C   UNL     1      21.829  28.337  56.903  1.00  0.00     0.217 C 
ATOM      4  N   UNL     1      20.697  27.889  56.229  1.00  0.00    -0.135 NA
ATOM      5  N   UNL     1      20.163  28.835  55.516  1.00  0.00    -0.214 NA
ATOM      6  N   UNL     1      22.758  27.863  57.749  1.00  0.00    -0.234 NA
ATOM      7  N   UNL     1      22.884  30.529  56.918  1.00  0.00    -0.249 NA
ATOM      8  C   UNL     1      23.798  30.022  57.760  1.00  0.00     0.182 C 
ATOM      9  C   UNL     1      23.726  28.692  58.168  1.00  0.00     0.118 C 
ATOM     10  H   UNL     1      19.316  28.743  54.937  1.00  0.00     0.212 HD
ENDROOT
BRANCH   1  11
ATOM     11  C   UNL     1      20.538  31.215  54.957  1.00  0.00     0.137 C 
ATOM     12  C   UNL     1      20.045  30.926  53.542  1.00  0.00     0.039 C 
BRANCH  11  13
ATOM     13  C   UNL     1      19.554  31.971  55.807  1.00  0.00    -0.007 A 
ATOM     14  C   UNL     1      18.193  31.492  56.080  1.00  0.00     0.011 A 
ATOM     15  C   UNL     1      19.893  33.146  56.371  1.00  0.00     0.098 A 
ATOM     16  C   UNL     1      17.318  32.204  56.864  1.00  0.00     0.048 A 
ATOM     17  N   UNL     1      19.035  33.868  57.157  1.00  0.00    -0.307 N 
ATOM     18  C   UNL     1      17.743  33.438  57.428  1.00  0.00     0.136 A 
ATOM     19  C   UNL     1      19.212  35.071  57.807  1.00  0.00     0.113 A 
ATOM     20  N   UNL     1      17.124  34.323  58.206  1.00  0.00    -0.237 NA
ATOM     21  C   UNL     1      18.040  35.328  58.436  1.00  0.00     0.132 A 
ENDBRANCH  11  13
ENDBRANCH   1  11
BRANCH   8  22
ATOM     22  C   UNL     1      24.865  30.940  58.220  1.00  0.00     0.020 A 
ATOM     23  C   UNL     1      25.914  30.696  59.072  1.00  0.00     0.114 A 
ATOM     24  C   UNL     1      25.023  32.288  57.862  1.00  0.00     0.141 A 
ATOM     25  N   UNL     1      26.634  31.817  59.199  1.00  0.00    -0.275 N 
ATOM     26  N   UNL     1      26.080  32.839  58.438  1.00  0.00    -0.181 NA
ATOM     27  C   UNL     1      27.834  32.021  60.005  1.00  0.00     0.173 C 
ENDBRANCH   8  22
TORSDOF 3
