REMARK SMILES CN(C)CCC[C@@]1(c2ccc(F)cc2)OCc2cc(C#N)ccc21
REMARK SMILES IDX 5 1 4 2 2 3 1 4 3 5 6 6 7 7 15 8 24 9 16 10 17 11 23 12
REMARK SMILES IDX 18 13 22 14 19 15 8 16 9 17 14 18 10 19 13 20 11 21 12 22
REMARK SMILES IDX 20 23 21 24
REMARK H PARENT
REMARK Flexibility Score: inf
ROOT
ATOM      1  C   UNL     1       1.562  -0.345  -0.682  1.00  0.00     0.019 C 
ENDROOT
BRANCH   1   2
ATOM      2  C   UNL     1       3.048   0.035  -0.612  1.00  0.00     0.084 C 
BRANCH   2   3
ATOM      3  N   UNL     1       3.940  -1.038  -1.082  1.00  0.00    -0.309 NA
ATOM      4  C   UNL     1       5.306  -0.526  -1.228  1.00  0.00     0.104 C 
ATOM      5  C   UNL     1       3.942  -2.193  -0.183  1.00  0.00     0.104 C 
ENDBRANCH   2   3
ENDBRANCH   1   2
BRANCH   1   6
ATOM      6  C   UNL     1       0.673   0.850  -0.298  1.00  0.00     0.047 C 
BRANCH   6   7
ATOM      7  C   UNL     1      -0.844   0.562  -0.349  1.00  0.00     0.119 C 
ATOM      8  O   UNL     1      -1.161   0.025  -1.671  1.00  0.00    -0.361 OA
ATOM      9  C   UNL     1      -1.288  -0.562   0.556  1.00  0.00    -0.006 A 
ATOM     10  C   UNL     1      -2.223  -0.947  -1.558  1.00  0.00     0.198 C 
ATOM     11  C   UNL     1      -2.104  -1.430  -0.161  1.00  0.00    -0.015 A 
ATOM     12  C   UNL     1      -0.982  -0.823   1.886  1.00  0.00     0.009 A 
ATOM     13  C   UNL     1      -2.672  -2.551   0.426  1.00  0.00     0.026 A 
ATOM     14  C   UNL     1      -1.538  -1.953   2.494  1.00  0.00     0.020 A 
ATOM     15  C   UNL     1      -2.385  -2.813   1.770  1.00  0.00     0.052 A 
BRANCH   7  16
ATOM     16  C   UNL     1      -1.619   1.879  -0.165  1.00  0.00    -0.012 A 
ATOM     17  C   UNL     1      -1.976   2.655  -1.288  1.00  0.00     0.010 A 
ATOM     18  C   UNL     1      -1.946   2.382   1.109  1.00  0.00     0.010 A 
ATOM     19  C   UNL     1      -2.656   3.866  -1.146  1.00  0.00     0.039 A 
ATOM     20  C   UNL     1      -2.627   3.595   1.251  1.00  0.00     0.039 A 
ATOM     21  C   UNL     1      -2.978   4.323   0.123  1.00  0.00     0.123 A 
ATOM     22  F   UNL     1      -3.629   5.486   0.263  1.00  0.00    -0.207 F 
ENDBRANCH   7  16
BRANCH  15  23
ATOM     23  C   UNL     1      -2.947  -3.966   2.411  1.00  0.00     0.099 C 
ATOM     24  N   UNL     1      -3.402  -4.899   2.931  1.00  0.00    -0.192 NA
ENDBRANCH  15  23
ENDBRANCH   6   7
ENDBRANCH   1   6
TORSDOF 6
