REMARK SMILES CNC(=O)c1ccc(N2C(=S)N(c3ccc(C#N)c(C(F)(F)F)c3)C(=O)C2(C)C)cc1F
REMARK SMILES IDX 9 1 10 2 11 3 12 4 25 5 26 6 27 7 28 8 29 9 8 10 5 11 6 12
REMARK SMILES IDX 31 13 7 14 30 15 32 16 3 17 1 18 2 19 4 21 13 22 14 23 24 24
REMARK SMILES IDX 15 25 19 26 16 27 20 28 21 29 22 30 23 31 17 32 18 33
REMARK H PARENT 2 20
REMARK Flexibility Score: inf
ROOT
ATOM      1  N   UNL     1       0.293  -0.202  -0.672  1.00  0.00    -0.303 N 
ATOM      2  C   UNL     1      -0.817  -0.371   0.211  1.00  0.00     0.188 C 
ATOM      3  S   UNL     1      -0.713  -0.850   1.818  1.00  0.00    -0.039 S 
ATOM      4  N   UNL     1      -1.972  -0.048  -0.507  1.00  0.00    -0.255 N 
ATOM      5  C   UNL     1      -1.638   0.357  -1.784  1.00  0.00     0.259 C 
ATOM      6  O   UNL     1      -2.389   0.800  -2.648  1.00  0.00    -0.271 OA
ATOM      7  C   UNL     1      -0.161   0.043  -2.042  1.00  0.00     0.121 C 
ATOM      8  C   UNL     1      -0.141  -1.218  -2.918  1.00  0.00     0.046 C 
ATOM      9  C   UNL     1       0.485   1.243  -2.738  1.00  0.00     0.046 C 
ENDROOT
BRANCH   1  10
ATOM     10  C   UNL     1       1.666  -0.081  -0.299  1.00  0.00     0.047 A 
ATOM     11  C   UNL     1       4.400   0.223   0.413  1.00  0.00     0.075 A 
ATOM     12  C   UNL     1       4.030  -0.507  -0.722  1.00  0.00     0.019 A 
ATOM     13  C   UNL     1       3.391   0.807   1.174  1.00  0.00     0.138 A 
ATOM     14  C   UNL     1       2.681  -0.651  -1.075  1.00  0.00     0.027 A 
ATOM     15  C   UNL     1       2.045   0.663   0.825  1.00  0.00     0.066 A 
ATOM     16  F   UNL     1       3.680   1.546   2.257  1.00  0.00    -0.206 F 
BRANCH  11  17
ATOM     17  C   UNL     1       5.848   0.345   0.738  1.00  0.00     0.253 C 
ATOM     18  C   UNL     1       7.563   1.211   2.272  1.00  0.00     0.143 C 
ATOM     19  N   UNL     1       6.187   0.978   1.914  1.00  0.00    -0.355 N 
ATOM     20  H   UNL     1       5.464   1.421   2.469  1.00  0.00     0.163 HD
ATOM     21  O   UNL     1       6.684  -0.111  -0.037  1.00  0.00    -0.269 OA
ENDBRANCH  11  17
ENDBRANCH   1  10
BRANCH   4  22
ATOM     22  C   UNL     1      -3.322  -0.044  -0.039  1.00  0.00     0.052 A 
ATOM     23  C   UNL     1      -4.205   0.975  -0.421  1.00  0.00     0.028 A 
ATOM     24  C   UNL     1      -3.828  -1.070   0.773  1.00  0.00     0.041 A 
ATOM     25  C   UNL     1      -5.532   0.991   0.022  1.00  0.00     0.022 A 
ATOM     26  C   UNL     1      -5.165  -1.073   1.229  1.00  0.00     0.075 A 
ATOM     27  C   UNL     1      -6.017  -0.025   0.851  1.00  0.00     0.064 A 
BRANCH  26  28
ATOM     28  C   UNL     1      -5.665  -2.200   2.102  1.00  0.00     0.417 C 
ATOM     29  F   UNL     1      -6.091  -1.768   3.317  1.00  0.00    -0.166 F 
ATOM     30  F   UNL     1      -6.708  -2.866   1.539  1.00  0.00    -0.166 F 
ATOM     31  F   UNL     1      -4.719  -3.146   2.354  1.00  0.00    -0.166 F 
ENDBRANCH  26  28
BRANCH  27  32
ATOM     32  C   UNL     1      -7.386   0.033   1.284  1.00  0.00     0.100 C 
ATOM     33  N   UNL     1      -8.491   0.086   1.631  1.00  0.00    -0.192 NA
ENDBRANCH  27  32
ENDBRANCH   4  22
TORSDOF 5
