REMARK SMILES C[C@@H](c1ncncc1F)[C@](O)(Cn1cncn1)c1ccc(F)cc1F
REMARK SMILES IDX 10 1 2 2 1 3 3 4 4 5 8 6 5 7 7 8 9 9 6 10 11 11 12 13 13 14
REMARK SMILES IDX 14 15 17 16 15 17 16 18 18 19 19 20 24 21 20 22 23 23 25 24
REMARK SMILES IDX 21 25 22 26
REMARK H PARENT 11 12
REMARK Flexibility Score: inf
ROOT
ATOM      1  C   UNL     1      -0.154  -0.678  -0.427  1.00  0.00     0.120 C 
ENDROOT
BRANCH   1   2
ATOM      2  C   UNL     1       1.068  -0.304   0.499  1.00  0.00     0.077 C 
ATOM      3  C   UNL     1       1.485  -1.468   1.415  1.00  0.00     0.018 C 
BRANCH   2   4
ATOM      4  C   UNL     1       2.303   0.130  -0.283  1.00  0.00     0.086 A 
ATOM      5  N   UNL     1       2.613  -0.567  -1.411  1.00  0.00    -0.238 NA
ATOM      6  C   UNL     1       3.097   1.165   0.180  1.00  0.00     0.163 A 
ATOM      7  C   UNL     1       3.728  -0.177  -2.063  1.00  0.00     0.222 A 
ATOM      8  C   UNL     1       4.205   1.476  -0.572  1.00  0.00     0.154 A 
ATOM      9  F   UNL     1       2.825   1.823   1.313  1.00  0.00    -0.203 F 
ATOM     10  N   UNL     1       4.548   0.821  -1.701  1.00  0.00    -0.242 NA
ENDBRANCH   2   4
ENDBRANCH   1   2
BRANCH   1  11
ATOM     11  O   UNL     1       0.229  -1.852  -1.198  1.00  0.00    -0.382 OA
ATOM     12  H   UNL     1       1.140  -1.686  -1.524  1.00  0.00     0.211 HD
ENDBRANCH   1  11
BRANCH   1  13
ATOM     13  C   UNL     1      -0.519   0.408  -1.476  1.00  0.00     0.187 C 
BRANCH  13  14
ATOM     14  N   UNL     1      -0.866   1.706  -0.955  1.00  0.00    -0.250 N 
ATOM     15  C   UNL     1      -2.105   2.253  -0.836  1.00  0.00     0.219 A 
ATOM     16  N   UNL     1       0.087   2.590  -0.610  1.00  0.00    -0.160 NA
ATOM     17  N   UNL     1      -2.000   3.479  -0.377  1.00  0.00    -0.224 NA
ATOM     18  C   UNL     1      -0.651   3.643  -0.247  1.00  0.00     0.246 A 
ENDBRANCH  13  14
ENDBRANCH   1  13
BRANCH   1  19
ATOM     19  C   UNL     1      -1.430  -1.083   0.340  1.00  0.00     0.022 A 
ATOM     20  C   UNL     1      -2.219  -2.169  -0.096  1.00  0.00     0.013 A 
ATOM     21  C   UNL     1      -1.887  -0.378   1.467  1.00  0.00     0.132 A 
ATOM     22  C   UNL     1      -3.389  -2.533   0.577  1.00  0.00     0.040 A 
ATOM     23  C   UNL     1      -3.053  -0.732   2.141  1.00  0.00     0.078 A 
ATOM     24  F   UNL     1      -1.216   0.687   1.920  1.00  0.00    -0.206 F 
ATOM     25  C   UNL     1      -3.793  -1.811   1.691  1.00  0.00     0.126 A 
ATOM     26  F   UNL     1      -4.916  -2.159   2.332  1.00  0.00    -0.207 F 
ENDBRANCH   1  19
TORSDOF 6
