REMARK SMILES CC[C@@H]1C(=O)OC[C@@H]1Cc1cncn1C
REMARK SMILES IDX 3 1 4 2 5 3 6 4 7 5 8 6 2 7 1 8 9 9 10 10 11 11 14 12 12 13
REMARK SMILES IDX 13 14 15 15
REMARK H PARENT
REMARK Flexibility Score: inf
ROOT
ATOM      1  C   UNL     1       1.418  -0.487  -1.151  1.00  0.00     0.106 C 
ATOM      2  C   UNL     1       2.510  -0.156  -2.144  1.00  0.00     0.309 C 
ATOM      3  O   UNL     1       3.256  -0.963  -2.674  1.00  0.00    -0.252 OA
ATOM      4  O   UNL     1       2.585   1.194  -2.339  1.00  0.00    -0.465 OA
ATOM      5  C   UNL     1       1.596   1.838  -1.538  1.00  0.00     0.237 C 
ATOM      6  C   UNL     1       0.554   0.770  -1.278  1.00  0.00     0.047 C 
ENDROOT
BRANCH   1   7
ATOM      7  C   UNL     1       2.076  -0.772   0.207  1.00  0.00     0.012 C 
ATOM      8  C   UNL     1       1.274  -1.734   1.071  1.00  0.00     0.005 C 
ENDBRANCH   1   7
BRANCH   6   9
ATOM      9  C   UNL     1      -0.386   1.142  -0.134  1.00  0.00     0.063 C 
BRANCH   9  10
ATOM     10  C   UNL     1      -1.562   0.232   0.010  1.00  0.00     0.037 A 
ATOM     11  C   UNL     1      -2.177  -0.644  -0.866  1.00  0.00     0.134 A 
ATOM     12  N   UNL     1      -2.319   0.135   1.158  1.00  0.00    -0.338 N 
ATOM     13  N   UNL     1      -3.245  -1.269  -0.280  1.00  0.00    -0.245 NA
ATOM     14  C   UNL     1      -3.306  -0.781   0.936  1.00  0.00     0.199 A 
ATOM     15  C   UNL     1      -2.126   0.862   2.388  1.00  0.00     0.151 C 
ENDBRANCH   9  10
ENDBRANCH   6   9
TORSDOF 3
