REMARK SMILES Cn1c(=O)n(-c2ccc(C(C)(C)C#N)cc2)c2c3cc(-c4cnc5ccccc5c4)ccc3ncc21
REMARK SMILES IDX 6 1 7 2 8 3 9 4 15 5 16 6 5 7 1 8 2 9 3 10 36 11 4 12 17 13
REMARK SMILES IDX 35 14 18 15 34 16 33 17 19 18 32 19 20 20 31 21 21 22 22 23
REMARK SMILES IDX 30 24 23 25 29 26 24 27 28 28 25 29 27 30 26 31 10 32 11 33
REMARK SMILES IDX 12 34 13 35 14 36
REMARK H PARENT
REMARK Flexibility Score: inf
ROOT
ATOM      1  C   UNL     1      -2.249  -1.163   0.373  1.00  0.00     0.051 A 
ATOM      2  C   UNL     1      -1.935  -0.513  -0.824  1.00  0.00     0.027 A 
ATOM      3  C   UNL     1      -2.259   0.836  -1.016  1.00  0.00     0.007 A 
ATOM      4  C   UNL     1      -2.927   1.579  -0.023  1.00  0.00    -0.028 A 
ATOM      5  C   UNL     1      -3.282   0.901   1.154  1.00  0.00     0.007 A 
ATOM      6  C   UNL     1      -2.960  -0.451   1.341  1.00  0.00     0.027 A 
ENDROOT
BRANCH   1   7
ATOM      7  N   UNL     1      -1.925  -2.517   0.592  1.00  0.00    -0.260 N 
ATOM      8  C   UNL     1      -2.969  -6.010   0.943  1.00  0.00     0.155 C 
ATOM      9  N   UNL     1      -2.325  -4.744   0.740  1.00  0.00    -0.293 N 
ATOM     10  C   UNL     1      -2.888  -3.483   1.025  1.00  0.00     0.333 C 
ATOM     11  C   UNL     1      -1.072  -4.560   0.149  1.00  0.00     0.088 A 
ATOM     12  O   UNL     1      -3.997  -3.291   1.501  1.00  0.00    -0.247 OA
ATOM     13  C   UNL     1      -0.781  -3.199   0.097  1.00  0.00     0.086 A 
ATOM     14  C   UNL     1      -0.174  -5.471  -0.334  1.00  0.00     0.140 A 
ATOM     15  C   UNL     1       0.491  -2.764  -0.312  1.00  0.00     0.027 A 
ATOM     16  N   UNL     1       1.014  -5.084  -0.848  1.00  0.00    -0.254 NA
ATOM     17  C   UNL     1       1.343  -3.773  -0.817  1.00  0.00     0.072 A 
ATOM     18  C   UNL     1       0.998  -1.443  -0.197  1.00  0.00     0.021 A 
ATOM     19  C   UNL     1       2.598  -3.408  -1.279  1.00  0.00     0.029 A 
ATOM     20  C   UNL     1       2.270  -1.078  -0.664  1.00  0.00    -0.016 A 
ATOM     21  C   UNL     1       3.059  -2.087  -1.222  1.00  0.00     0.011 A 
BRANCH  20  22
ATOM     22  C   UNL     1       2.746   0.309  -0.561  1.00  0.00     0.001 A 
ATOM     23  C   UNL     1       1.960   1.389  -0.959  1.00  0.00     0.120 A 
ATOM     24  C   UNL     1       4.009   0.629  -0.052  1.00  0.00     0.020 A 
ATOM     25  N   UNL     1       2.324   2.693  -0.883  1.00  0.00    -0.256 NA
ATOM     26  C   UNL     1       4.429   1.966   0.042  1.00  0.00     0.001 A 
ATOM     27  C   UNL     1       3.542   2.974  -0.390  1.00  0.00     0.070 A 
ATOM     28  C   UNL     1       5.693   2.310   0.554  1.00  0.00     0.010 A 
ATOM     29  C   UNL     1       3.954   4.297  -0.298  1.00  0.00     0.029 A 
ATOM     30  C   UNL     1       6.081   3.646   0.636  1.00  0.00     0.001 A 
ATOM     31  C   UNL     1       5.210   4.641   0.209  1.00  0.00     0.002 A 
ENDBRANCH  20  22
ENDBRANCH   1   7
BRANCH   4  32
ATOM     32  C   UNL     1      -3.230   3.071  -0.256  1.00  0.00     0.077 C 
ATOM     33  C   UNL     1      -4.085   3.717   0.857  1.00  0.00     0.032 C 
ATOM     34  C   UNL     1      -1.894   3.843  -0.323  1.00  0.00     0.032 C 
BRANCH  32  35
ATOM     35  C   UNL     1      -3.962   3.265  -1.538  1.00  0.00     0.073 C 
ATOM     36  N   UNL     1      -4.522   3.432  -2.541  1.00  0.00    -0.197 NA
ENDBRANCH  32  35
ENDBRANCH   4  32
TORSDOF 4
