REMARK SMILES COc1ccc(F)cc1C(=O)NCc1ccc(-c2nn([C@@H](C)C(F)(F)F)c(N)c2C(N)=O)cc1
REMARK SMILES IDX 14 1 15 2 16 3 17 4 33 5 34 6 13 7 12 8 10 9 11 10 9 12 3 13
REMARK SMILES IDX 4 14 5 15 8 16 6 17 7 18 2 19 1 20 18 21 19 22 29 23 20 24
REMARK SMILES IDX 27 25 30 26 31 27 32 28 21 31 22 32 23 33 24 34 25 35 26 36
REMARK SMILES IDX 28 37
REMARK H PARENT 12 11 31 29 31 30 28 38 28 39
REMARK Flexibility Score: inf
ROOT
ATOM      1  C   UNL     1       1.189  -1.368  -1.612  1.00  0.00    -0.029 A 
ATOM      2  C   UNL     1       0.527  -0.152  -1.840  1.00  0.00     0.006 A 
ATOM      3  C   UNL     1      -0.755   0.064  -1.328  1.00  0.00     0.011 A 
ATOM      4  C   UNL     1      -1.398  -0.934  -0.588  1.00  0.00     0.003 A 
ATOM      5  C   UNL     1      -0.733  -2.141  -0.342  1.00  0.00     0.011 A 
ATOM      6  C   UNL     1       0.551  -2.357  -0.851  1.00  0.00     0.006 A 
ENDROOT
BRANCH   1   7
ATOM      7  C   UNL     1       2.582  -1.583  -2.148  1.00  0.00     0.152 C 
BRANCH   7   8
ATOM      8  N   UNL     1       3.552  -0.873  -1.349  1.00  0.00    -0.348 N 
ATOM      9  C   UNL     1       4.137   0.299  -1.761  1.00  0.00     0.255 C 
ATOM     10  O   UNL     1       3.977   0.756  -2.890  1.00  0.00    -0.269 OA
ATOM     11  H   UNL     1       3.629  -1.118  -0.368  1.00  0.00     0.164 HD
BRANCH   9  12
ATOM     12  C   UNL     1       5.007   1.024  -0.777  1.00  0.00     0.084 A 
ATOM     13  C   UNL     1       5.076   0.735   0.606  1.00  0.00     0.131 A 
ATOM     14  C   UNL     1       5.938   1.486   1.421  1.00  0.00     0.050 A 
ATOM     15  C   UNL     1       6.707   2.520   0.881  1.00  0.00     0.043 A 
ATOM     16  C   UNL     1       5.785   2.071  -1.302  1.00  0.00     0.057 A 
ATOM     17  C   UNL     1       6.621   2.804  -0.473  1.00  0.00     0.124 A 
ATOM     18  F   UNL     1       7.358   3.798  -0.986  1.00  0.00    -0.207 F 
BRANCH  13  19
ATOM     19  O   UNL     1       4.298  -0.289   1.087  1.00  0.00    -0.496 OA
ATOM     20  C   UNL     1       4.157  -0.410   2.500  1.00  0.00     0.278 C 
ENDBRANCH  13  19
ENDBRANCH   9  12
ENDBRANCH   7   8
ENDBRANCH   1   7
BRANCH   4  21
ATOM     21  C   UNL     1      -2.746  -0.708  -0.073  1.00  0.00     0.107 A 
ATOM     22  N   UNL     1      -2.991   0.375   0.681  1.00  0.00    -0.169 NA
ATOM     23  C   UNL     1      -3.921  -1.506  -0.236  1.00  0.00     0.109 A 
ATOM     24  N   UNL     1      -4.286   0.269   1.026  1.00  0.00    -0.237 N 
ATOM     25  C   UNL     1      -4.880  -0.868   0.536  1.00  0.00     0.135 A 
BRANCH  23  26
ATOM     26  C   UNL     1      -4.155  -2.725  -0.990  1.00  0.00     0.254 C 
ATOM     27  N   UNL     1      -3.334  -2.963  -2.054  1.00  0.00    -0.365 N 
ATOM     28  O   UNL     1      -5.067  -3.509  -0.738  1.00  0.00    -0.269 OA
ATOM     29  H   UNL     1      -2.719  -2.254  -2.430  1.00  0.00     0.159 HD
ATOM     30  H   UNL     1      -3.583  -3.738  -2.652  1.00  0.00     0.159 HD
ENDBRANCH  23  26
BRANCH  24  31
ATOM     31  C   UNL     1      -4.899   1.316   1.826  1.00  0.00     0.211 C 
ATOM     32  C   UNL     1      -4.001   1.788   2.973  1.00  0.00     0.043 C 
BRANCH  31  33
ATOM     33  C   UNL     1      -5.326   2.466   0.940  1.00  0.00     0.410 C 
ATOM     34  F   UNL     1      -4.291   3.132   0.386  1.00  0.00    -0.169 F 
ATOM     35  F   UNL     1      -6.148   2.072  -0.057  1.00  0.00    -0.169 F 
ATOM     36  F   UNL     1      -6.026   3.374   1.673  1.00  0.00    -0.169 F 
ENDBRANCH  31  33
ENDBRANCH  24  31
BRANCH  25  37
ATOM     37  N   UNL     1      -6.173  -1.202   0.767  1.00  0.00    -0.383 N 
ATOM     38  H   UNL     1      -6.459  -2.137   0.450  1.00  0.00     0.158 HD
ATOM     39  H   UNL     1      -6.646  -0.965   1.634  1.00  0.00     0.158 HD
ENDBRANCH  25  37
ENDBRANCH   4  21
TORSDOF 9
