REMARK SMILES O=C(O)c1ccc2nc(-c3cc(Cl)cc(Cl)c3)oc2c1
REMARK SMILES IDX 4 1 5 2 6 3 7 4 8 5 9 6 18 7 19 8 20 9 2 10 1 11 3 12 10 14
REMARK SMILES IDX 11 15 17 16 12 17 15 18 13 19 14 20 16 21
REMARK H PARENT 3 13
REMARK Flexibility Score: inf
ROOT
ATOM      1  C   UNL     1       3.529  -0.436   0.088  1.00  0.00     0.063 A 
ATOM      2  C   UNL     1       3.471   0.266  -1.131  1.00  0.00     0.018 A 
ATOM      3  C   UNL     1       2.246   0.710  -1.658  1.00  0.00     0.033 A 
ATOM      4  C   UNL     1       1.079   0.435  -0.936  1.00  0.00     0.110 A 
ATOM      5  N   UNL     1      -0.233   0.735  -1.193  1.00  0.00    -0.209 NA
ATOM      6  C   UNL     1      -0.883   0.224  -0.162  1.00  0.00     0.227 A 
ATOM      7  O   UNL     1      -0.083  -0.398   0.763  1.00  0.00    -0.436 OA
ATOM      8  C   UNL     1       1.177  -0.258   0.259  1.00  0.00     0.156 A 
ATOM      9  C   UNL     1       2.362  -0.717   0.819  1.00  0.00     0.065 A 
ENDROOT
BRANCH   1  10
ATOM     10  C   UNL     1       4.817  -0.910   0.652  1.00  0.00     0.335 C 
ATOM     11  O   UNL     1       4.953  -1.521   1.696  1.00  0.00    -0.246 OA
BRANCH  10  12
ATOM     12  O   UNL     1       5.873  -0.594  -0.117  1.00  0.00    -0.478 OA
ATOM     13  H   UNL     1       6.640  -0.962   0.370  1.00  0.00     0.297 HD
ENDBRANCH  10  12
ENDBRANCH   1  10
BRANCH   6  14
ATOM     14  C   UNL     1      -2.317   0.236   0.112  1.00  0.00     0.040 A 
ATOM     15  C   UNL     1      -3.188   0.856  -0.797  1.00  0.00     0.034 A 
ATOM     16  C   UNL     1      -2.858  -0.357   1.262  1.00  0.00     0.034 A 
ATOM     17  C   UNL     1      -4.562   0.881  -0.557  1.00  0.00     0.043 A 
ATOM     18  C   UNL     1      -4.235  -0.326   1.490  1.00  0.00     0.043 A 
ATOM     19  Cl  UNL     1      -5.611   1.647  -1.686  1.00  0.00    -0.084 Cl
ATOM     20  C   UNL     1      -5.093   0.291   0.585  1.00  0.00     0.041 A 
ATOM     21  Cl  UNL     1      -4.879  -1.059   2.908  1.00  0.00    -0.084 Cl
ENDBRANCH   6  14
TORSDOF 3
