REMARK SMILES CN(C)C(=N)NC(=N)N
REMARK SMILES IDX 1 1 2 2 3 3 4 4 5 5 6 6 7 7 8 8 9 9
REMARK H PARENT 5 10 6 11 8 12 9 13 9 14
REMARK Flexibility Score: inf
ROOT
ATOM      1  C   UNL     1      -1.915   1.149   0.437  1.00  0.00     0.146 C 
ATOM      2  N   UNL     1      -1.324  -0.038  -0.195  1.00  0.00    -0.349 N 
ATOM      3  C   UNL     1      -2.328  -1.089  -0.410  1.00  0.00     0.146 C 
ATOM      4  C   UNL     1      -0.104  -0.459   0.298  1.00  0.00     0.197 C 
ATOM      5  N   UNL     1       0.001  -1.486   1.075  1.00  0.00    -0.269 NA
ATOM      6  N   UNL     1       0.934   0.312  -0.132  1.00  0.00    -0.297 N 
ATOM      7  C   UNL     1       2.280   0.160  -0.177  1.00  0.00     0.192 C 
ATOM      8  N   UNL     1       2.958  -0.924  -0.032  1.00  0.00    -0.269 NA
ATOM      9  N   UNL     1       2.965   1.304  -0.406  1.00  0.00    -0.370 N 
ATOM     10  H   UNL     1       0.973  -1.558   1.388  1.00  0.00     0.191 HD
ATOM     11  H   UNL     1       0.612   1.169  -0.549  1.00  0.00     0.173 HD
ATOM     12  H   UNL     1       2.308  -1.712   0.051  1.00  0.00     0.191 HD
ATOM     13  H   UNL     1       3.955   1.074  -0.472  1.00  0.00     0.159 HD
ATOM     14  H   UNL     1       2.685   1.796  -1.244  1.00  0.00     0.159 HD
ENDROOT
TORSDOF 0
