REMARK SMILES CN1CCN(C(c2ccccc2)c2ccccc2)CC1
REMARK SMILES IDX 6 1 5 2 1 3 2 4 3 5 20 6 4 7 19 8 7 9 8 10 12 11 9 12 11 13
REMARK SMILES IDX 10 14 13 15 14 16 18 17 15 18 17 19 16 20
REMARK H PARENT
REMARK Flexibility Score: inf
ROOT
ATOM      1  C   UNL     1       0.137   0.659  -0.837  1.00  0.00     0.117 C 
ENDROOT
BRANCH   1   2
ATOM      2  N   UNL     1      -1.032   0.456   0.053  1.00  0.00    -0.290 NA
ATOM      3  C   UNL     1      -3.498  -1.711   2.589  1.00  0.00     0.105 C 
ATOM      4  N   UNL     1      -2.711  -1.709   1.360  1.00  0.00    -0.304 NA
ATOM      5  C   UNL     1      -1.269  -1.521   1.627  1.00  0.00     0.099 C 
ATOM      6  C   UNL     1      -3.223  -0.694   0.416  1.00  0.00     0.099 C 
ATOM      7  C   UNL     1      -0.758  -0.079   1.396  1.00  0.00     0.101 C 
ATOM      8  C   UNL     1      -2.155  -0.236  -0.601  1.00  0.00     0.101 C 
ENDBRANCH   1   2
BRANCH   1   9
ATOM      9  C   UNL     1       0.982   1.903  -0.483  1.00  0.00    -0.026 A 
ATOM     10  C   UNL     1       0.560   2.856   0.461  1.00  0.00     0.006 A 
ATOM     11  C   UNL     1       2.177   2.167  -1.182  1.00  0.00     0.006 A 
ATOM     12  C   UNL     1       1.325   3.994   0.734  1.00  0.00     0.000 A 
ATOM     13  C   UNL     1       2.942   3.304  -0.909  1.00  0.00     0.000 A 
ATOM     14  C   UNL     1       2.518   4.214   0.053  1.00  0.00     0.000 A 
ENDBRANCH   1   9
BRANCH   1  15
ATOM     15  C   UNL     1       0.963  -0.614  -1.094  1.00  0.00    -0.026 A 
ATOM     16  C   UNL     1       1.996  -1.025  -0.233  1.00  0.00     0.006 A 
ATOM     17  C   UNL     1       0.698  -1.402  -2.229  1.00  0.00     0.006 A 
ATOM     18  C   UNL     1       2.727  -2.187  -0.489  1.00  0.00     0.000 A 
ATOM     19  C   UNL     1       1.428  -2.564  -2.484  1.00  0.00     0.000 A 
ATOM     20  C   UNL     1       2.441  -2.957  -1.613  1.00  0.00     0.000 A 
ENDBRANCH   1  15
TORSDOF 3
