REMARK SMILES Cc1c(N(C)C)c(=O)n(-c2ccccc2)n1C
REMARK SMILES IDX 1 1 2 2 3 3 7 4 8 5 9 6 16 7 17 8 4 9 5 10 6 11 10 12 11 13
REMARK SMILES IDX 15 14 12 15 14 16 13 17
REMARK H PARENT
REMARK Flexibility Score: inf
ROOT
ATOM      1  C   UNL     1      -2.389  -1.784   0.972  1.00  0.00     0.069 C 
ATOM      2  C   UNL     1      -1.355  -0.878   0.379  1.00  0.00     0.061 C 
ATOM      3  C   UNL     1      -1.598   0.303  -0.226  1.00  0.00     0.125 C 
ATOM      4  C   UNL     1      -0.233   0.755  -0.720  1.00  0.00     0.295 C 
ATOM      5  O   UNL     1      -0.031   1.812  -1.302  1.00  0.00    -0.265 OA
ATOM      6  N   UNL     1       0.687  -0.217  -0.302  1.00  0.00    -0.216 N 
ATOM      7  N   UNL     1      -0.007  -1.272   0.349  1.00  0.00    -0.283 N 
ATOM      8  C   UNL     1       0.313  -2.604  -0.192  1.00  0.00     0.172 C 
ENDROOT
BRANCH   3   9
ATOM      9  N   UNL     1      -2.779   1.028  -0.408  1.00  0.00    -0.372 N 
ATOM     10  C   UNL     1      -3.538   1.450   0.774  1.00  0.00     0.143 C 
ATOM     11  C   UNL     1      -2.869   2.003  -1.503  1.00  0.00     0.143 C 
ENDBRANCH   3   9
BRANCH   6  12
ATOM     12  C   UNL     1       2.074   0.004  -0.082  1.00  0.00     0.067 A 
ATOM     13  C   UNL     1       2.781  -0.722   0.890  1.00  0.00     0.028 A 
ATOM     14  C   UNL     1       2.779   0.959  -0.827  1.00  0.00     0.028 A 
ATOM     15  C   UNL     1       4.146  -0.508   1.103  1.00  0.00     0.002 A 
ATOM     16  C   UNL     1       4.145   1.175  -0.616  1.00  0.00     0.002 A 
ATOM     17  C   UNL     1       4.829   0.440   0.348  1.00  0.00     0.000 A 
ENDBRANCH   6  12
TORSDOF 2
