REMARK SMILES COc1c(N2C[C@@H]3CCCN[C@@H]3C2)c(F)cc2c(=O)c(C(=O)O)cn(C3CC3)c12
REMARK SMILES IDX 3 1 4 2 14 3 15 4 16 5 17 6 18 7 19 8 20 9 24 10 25 11 29 12
REMARK SMILES IDX 2 13 1 14 5 15 6 16 13 17 7 18 12 19 8 20 11 21 9 22 10 23
REMARK SMILES IDX 26 25 27 26 28 27 21 28 22 29 23 30
REMARK H PARENT 11 24 23 31
REMARK Flexibility Score: inf
ROOT
ATOM      1  C   UNL     1      -0.822  -0.269  -0.555  1.00  0.00     0.169 A 
ATOM      2  C   UNL     1       0.356   0.354  -1.077  1.00  0.00     0.118 A 
ATOM      3  C   UNL     1       0.151   1.587  -1.726  1.00  0.00     0.151 A 
ATOM      4  F   UNL     1       1.162   2.230  -2.331  1.00  0.00    -0.205 F 
ATOM      5  C   UNL     1      -1.087   2.213  -1.769  1.00  0.00     0.056 A 
ATOM      6  C   UNL     1      -2.185   1.630  -1.136  1.00  0.00     0.053 A 
ATOM      7  C   UNL     1      -3.473   2.368  -1.167  1.00  0.00     0.204 C 
ATOM      8  O   UNL     1      -3.602   3.345  -1.897  1.00  0.00    -0.288 OA
ATOM      9  C   UNL     1      -4.561   1.864  -0.310  1.00  0.00     0.124 C 
ATOM     10  C   UNL     1      -4.372   0.674   0.275  1.00  0.00     0.106 C 
ATOM     11  N   UNL     1      -3.257  -0.143   0.161  1.00  0.00    -0.340 N 
ATOM     12  C   UNL     1      -2.088   0.379  -0.495  1.00  0.00     0.097 A 
ENDROOT
BRANCH   1  13
ATOM     13  O   UNL     1      -0.729  -1.579  -0.121  1.00  0.00    -0.492 OA
ATOM     14  C   UNL     1      -0.737  -2.454  -1.257  1.00  0.00     0.278 C 
ENDBRANCH   1  13
BRANCH   2  15
ATOM     15  N   UNL     1       1.619  -0.238  -0.978  1.00  0.00    -0.364 N 
ATOM     16  C   UNL     1       1.986  -1.003   0.226  1.00  0.00     0.122 C 
ATOM     17  C   UNL     1       2.817   0.360  -1.579  1.00  0.00     0.136 C 
ATOM     18  C   UNL     1       3.505  -0.842   0.379  1.00  0.00     0.027 C 
ATOM     19  C   UNL     1       3.981  -0.501  -1.040  1.00  0.00     0.077 C 
ATOM     20  C   UNL     1       3.895   0.255   1.373  1.00  0.00     0.008 C 
ATOM     21  N   UNL     1       5.302   0.144  -1.124  1.00  0.00    -0.312 NA
ATOM     22  C   UNL     1       5.399   0.545   1.316  1.00  0.00     0.016 C 
ATOM     23  C   UNL     1       6.086  -0.062   0.092  1.00  0.00     0.081 C 
ATOM     24  H   UNL     1       5.191   1.146  -1.277  1.00  0.00     0.123 HD
ENDBRANCH   2  15
BRANCH  11  25
ATOM     25  C   UNL     1      -3.188  -1.313   1.072  1.00  0.00     0.087 C 
ATOM     26  C   UNL     1      -4.395  -2.126   1.496  1.00  0.00     0.027 C 
ATOM     27  C   UNL     1      -3.396  -2.719   0.560  1.00  0.00     0.027 C 
ENDBRANCH  11  25
BRANCH   9  28
ATOM     28  C   UNL     1      -5.819   2.570  -0.043  1.00  0.00     0.341 C 
ATOM     29  O   UNL     1      -6.878   2.047   0.263  1.00  0.00    -0.246 OA
BRANCH  28  30
ATOM     30  O   UNL     1      -5.699   3.905  -0.091  1.00  0.00    -0.477 OA
ATOM     31  H   UNL     1      -6.599   4.247   0.084  1.00  0.00     0.297 HD
ENDBRANCH  28  30
ENDBRANCH   9  28
TORSDOF 5
