REMARK SMILES CC1(C)S[C@@H]2[C@H](NC(=O)Cc3ccccc3)C(=O)N2[C@H]1C(=O)O
REMARK SMILES IDX 1 1 2 2 3 3 4 4 5 5 6 6 17 7 18 8 19 9 20 10 21 11 22 12
REMARK SMILES IDX 23 13 7 15 8 16 9 18 10 19 11 20 12 21 16 22 13 23 15 24
REMARK SMILES IDX 14 25
REMARK H PARENT 23 14 7 17
REMARK Flexibility Score: inf
ROOT
ATOM      1  C   UNL     1       4.546   0.309  -0.687  1.00  0.00     0.026 C 
ATOM      2  C   UNL     1       3.215   1.075  -0.661  1.00  0.00     0.044 C 
ATOM      3  C   UNL     1       3.295   2.307  -1.565  1.00  0.00     0.026 C 
ATOM      4  S   UNL     1       1.892  -0.051  -1.318  1.00  0.00    -0.125 SA
ATOM      5  C   UNL     1       1.691  -0.843   0.328  1.00  0.00     0.176 C 
ATOM      6  C   UNL     1       0.277  -0.911   0.955  1.00  0.00     0.205 C 
ATOM      7  C   UNL     1       0.701   0.386   1.679  1.00  0.00     0.250 C 
ATOM      8  O   UNL     1       0.142   1.286   2.263  1.00  0.00    -0.272 OA
ATOM      9  N   UNL     1       2.002   0.249   1.272  1.00  0.00    -0.311 N 
ATOM     10  C   UNL     1       2.709   1.423   0.754  1.00  0.00     0.211 C 
ENDROOT
BRANCH  10  11
ATOM     11  C   UNL     1       3.817   1.916   1.681  1.00  0.00     0.327 C 
ATOM     12  O   UNL     1       4.534   2.883   1.473  1.00  0.00    -0.250 OA
BRANCH  11  13
ATOM     13  O   UNL     1       3.994   1.180   2.797  1.00  0.00    -0.480 OA
ATOM     14  H   UNL     1       4.707   1.639   3.289  1.00  0.00     0.296 HD
ENDBRANCH  11  13
ENDBRANCH  10  11
BRANCH   6  15
ATOM     15  N   UNL     1      -0.888  -0.803   0.040  1.00  0.00    -0.341 N 
ATOM     16  C   UNL     1      -1.211  -1.833  -0.813  1.00  0.00     0.225 C 
ATOM     17  H   UNL     1      -1.544  -0.035   0.146  1.00  0.00     0.164 HD
ATOM     18  O   UNL     1      -0.544  -2.864  -0.876  1.00  0.00    -0.275 OA
BRANCH  16  19
ATOM     19  C   UNL     1      -2.412  -1.580  -1.706  1.00  0.00     0.135 C 
BRANCH  19  20
ATOM     20  C   UNL     1      -3.668  -1.234  -0.943  1.00  0.00    -0.039 A 
ATOM     21  C   UNL     1      -4.282   0.015  -1.105  1.00  0.00     0.004 A 
ATOM     22  C   UNL     1      -4.237  -2.163  -0.059  1.00  0.00     0.004 A 
ATOM     23  C   UNL     1      -5.438   0.332  -0.388  1.00  0.00     0.000 A 
ATOM     24  C   UNL     1      -5.392  -1.843   0.655  1.00  0.00     0.000 A 
ATOM     25  C   UNL     1      -5.991  -0.596   0.492  1.00  0.00     0.000 A 
ENDBRANCH  19  20
ENDBRANCH  16  19
ENDBRANCH   6  15
TORSDOF 5
