REMARK SMILES CCC[C@@H]1CC(=O)N([C@@H](CC)C(N)=O)C1
REMARK SMILES IDX 4 1 5 2 6 3 7 4 8 5 15 6 3 7 2 8 1 9 9 10 10 11 11 12 12 13
REMARK SMILES IDX 13 14 14 15
REMARK H PARENT 13 16 13 17
REMARK Flexibility Score: inf
ROOT
ATOM      1  C   UNL     1       1.139  -0.564   0.253  1.00  0.00     0.018 C 
ATOM      2  C   UNL     1       0.960  -0.191  -1.222  1.00  0.00     0.105 C 
ATOM      3  C   UNL     1      -0.530  -0.308  -1.430  1.00  0.00     0.223 C 
ATOM      4  O   UNL     1      -1.090  -0.344  -2.512  1.00  0.00    -0.275 OA
ATOM      5  N   UNL     1      -1.138  -0.348  -0.183  1.00  0.00    -0.330 N 
ATOM      6  C   UNL     1      -0.185  -0.141   0.879  1.00  0.00     0.124 C 
ENDROOT
BRANCH   1   7
ATOM      7  C   UNL     1       2.344   0.094   0.926  1.00  0.00     0.005 C 
BRANCH   7   8
ATOM      8  C   UNL     1       3.672  -0.362   0.320  1.00  0.00    -0.003 C 
ATOM      9  C   UNL     1       4.856   0.263   1.042  1.00  0.00     0.004 C 
ENDBRANCH   7   8
ENDBRANCH   1   7
BRANCH   5  10
ATOM     10  C   UNL     1      -2.582  -0.154   0.031  1.00  0.00     0.173 C 
BRANCH  10  11
ATOM     11  C   UNL     1      -3.139   1.153  -0.558  1.00  0.00     0.032 C 
ATOM     12  C   UNL     1      -2.471   2.403  -0.005  1.00  0.00     0.006 C 
ENDBRANCH  10  11
BRANCH  10  13
ATOM     13  C   UNL     1      -3.410  -1.367  -0.454  1.00  0.00     0.240 C 
ATOM     14  N   UNL     1      -2.754  -2.570  -0.469  1.00  0.00    -0.368 N 
ATOM     15  O   UNL     1      -4.619  -1.332  -0.667  1.00  0.00    -0.273 OA
ATOM     16  H   UNL     1      -1.760  -2.541  -0.655  1.00  0.00     0.159 HD
ATOM     17  H   UNL     1      -3.272  -3.324  -0.900  1.00  0.00     0.159 HD
ENDBRANCH  10  13
ENDBRANCH   5  10
TORSDOF 5
