REMARK SMILES CC(C)c1cccc(C(C)C)c1O
REMARK SMILES IDX 4 1 5 2 6 3 7 4 8 5 12 6 2 7 1 8 3 9 13 10 9 12 10 13 11 14
REMARK H PARENT 13 11
REMARK Flexibility Score: inf
ROOT
ATOM      1  C   UNL     1      -1.214  -0.086  -0.175  1.00  0.00    -0.003 A 
ATOM      2  C   UNL     1      -1.197  -1.314  -0.859  1.00  0.00     0.008 A 
ATOM      3  C   UNL     1       0.005  -1.922  -1.218  1.00  0.00     0.001 A 
ATOM      4  C   UNL     1       1.217  -1.316  -0.899  1.00  0.00     0.008 A 
ATOM      5  C   UNL     1       1.251  -0.100  -0.200  1.00  0.00    -0.003 A 
ATOM      6  C   UNL     1       0.026   0.487   0.173  1.00  0.00     0.122 A 
ENDROOT
BRANCH   1   7
ATOM      7  C   UNL     1      -2.540   0.577   0.176  1.00  0.00     0.017 C 
ATOM      8  C   UNL     1      -3.586   0.504  -0.944  1.00  0.00     0.012 C 
ATOM      9  C   UNL     1      -3.102  -0.012   1.471  1.00  0.00     0.012 C 
ENDBRANCH   1   7
BRANCH   6  10
ATOM     10  O   UNL     1       0.085   1.644   0.906  1.00  0.00    -0.507 OA
ATOM     11  H   UNL     1      -0.697   1.685   1.477  1.00  0.00     0.293 HD
ENDBRANCH   6  10
BRANCH   5  12
ATOM     12  C   UNL     1       2.584   0.544   0.158  1.00  0.00     0.017 C 
ATOM     13  C   UNL     1       3.359  -0.313   1.163  1.00  0.00     0.012 C 
ATOM     14  C   UNL     1       3.434   0.827  -1.085  1.00  0.00     0.012 C 
ENDBRANCH   5  12
TORSDOF 3
