REMARK SMILES CC(CC1c2ccccc2CCc2ccccc21)CN(C)C
REMARK SMILES IDX 3 1 2 2 1 3 19 4 20 5 21 6 22 7 4 8 5 9 6 10 10 11 7 12 9 13
REMARK SMILES IDX 8 14 11 15 18 17 13 18 17 19 14 20 16 21 15 22 12 23
REMARK H PARENT
REMARK Flexibility Score: 90.00
ROOT
ATOM      1  C   UNL     1       0.610  -0.811   0.239  1.00  0.00     0.017 C 
ENDROOT
BRANCH   1   2
ATOM      2  C   UNL     1       1.684   0.301   0.313  1.00  0.00     0.001 C 
ATOM      3  C   UNL     1       2.208   0.487   1.742  1.00  0.00     0.009 C 
BRANCH   2   4
ATOM      4  C   UNL     1       2.842  -0.056  -0.657  1.00  0.00     0.087 C 
BRANCH   4   5
ATOM      5  N   UNL     1       3.932   0.936  -0.706  1.00  0.00    -0.309 NA
ATOM      6  C   UNL     1       3.498   2.192  -1.326  1.00  0.00     0.104 C 
ATOM      7  C   UNL     1       5.074   0.390  -1.446  1.00  0.00     0.104 C 
ENDBRANCH   4   5
ENDBRANCH   2   4
ENDBRANCH   1   2
BRANCH   1   8
ATOM      8  C   UNL     1      -0.734  -0.516   0.964  1.00  0.00     0.050 C 
BRANCH   8   9
ATOM      9  C   UNL     1      -1.678  -1.714   0.816  1.00  0.00    -0.037 A 
ATOM     10  C   UNL     1      -1.538  -2.732   1.793  1.00  0.00     0.004 A 
ATOM     11  C   UNL     1      -2.617  -1.908  -0.217  1.00  0.00    -0.044 A 
ATOM     12  C   UNL     1      -2.300  -3.899   1.767  1.00  0.00     0.000 A 
ATOM     13  C   UNL     1      -3.383  -3.099  -0.217  1.00  0.00     0.004 A 
ATOM     14  C   UNL     1      -3.224  -4.084   0.756  1.00  0.00     0.000 A 
BRANCH  11  15
ATOM     15  C   UNL     1      -2.964  -0.933  -1.322  1.00  0.00     0.040 CG0
ATOM     16  G   UNL     1      -1.995   0.186  -1.682  1.00  0.00     0.000 G0
ENDBRANCH  11  15
ENDBRANCH   8   9
BRANCH   8  17
ATOM     17  C   UNL     1      -1.346   0.848   0.672  1.00  0.00    -0.037 A 
ATOM     18  C   UNL     1      -1.880   1.197  -0.577  1.00  0.00    -0.044 A 
ATOM     19  C   UNL     1      -1.344   1.821   1.693  1.00  0.00     0.004 A 
ATOM     20  C   UNL     1      -2.359   2.502  -0.792  1.00  0.00     0.004 A 
ATOM     21  C   UNL     1      -1.825   3.111   1.471  1.00  0.00     0.000 A 
ATOM     22  C   UNL     1      -2.326   3.455   0.225  1.00  0.00     0.000 A 
BRANCH  18  23
ATOM     23  C   UNL     1      -1.995   0.186  -1.682  1.00  0.00     0.040 CG0
ATOM     24  G   UNL     1      -2.964  -0.933  -1.322  1.00  0.00     0.000 G0
ENDBRANCH  18  23
ENDBRANCH   8  17
ENDBRANCH   1   8
TORSDOF 4
