REMARK SMILES CO[C@@]12[C@H](COC(N)=O)C3=C(C(=O)C(C)=C(N)C3=O)N1C[C@@H]1N[C@@H]12
REMARK SMILES IDX 5 1 4 2 3 3 20 4 24 5 10 6 11 7 21 8 22 9 23 10 18 11 12 12
REMARK SMILES IDX 16 14 19 15 13 16 14 17 15 18 2 19 1 20 17 21 6 24 7 25 8 26
REMARK SMILES IDX 9 27
REMARK H PARENT 23 13 17 22 17 23 8 28 8 29
REMARK Flexibility Score: inf
ROOT
ATOM      1  C   UNL     1      -0.695   0.318  -1.887  1.00  0.00     0.248 C 
ENDROOT
BRANCH   1   2
ATOM      2  C   UNL     1      -0.544   0.664  -0.402  1.00  0.00     0.118 C 
ATOM      3  C   UNL     1      -1.304  -0.288   0.595  1.00  0.00     0.168 C 
ATOM      4  N   UNL     1      -0.225  -0.762   1.520  1.00  0.00    -0.336 N 
ATOM      5  C   UNL     1      -1.896  -1.579   0.048  1.00  0.00     0.127 C 
ATOM      6  C   UNL     1       0.886   0.557   0.070  1.00  0.00     0.041 C 
ATOM      7  C   UNL     1       1.002  -0.254   1.118  1.00  0.00     0.095 C 
ATOM      8  C   UNL     1      -0.418  -2.169   1.892  1.00  0.00     0.140 C 
ATOM      9  C   UNL     1      -1.395  -2.704   0.884  1.00  0.00     0.095 C 
ATOM     10  N   UNL     1      -1.102  -2.671  -0.550  1.00  0.00    -0.302 NA
ATOM     11  C   UNL     1       2.038   1.241  -0.502  1.00  0.00     0.207 C 
ATOM     12  C   UNL     1       2.310  -0.546   1.756  1.00  0.00     0.207 C 
ATOM     13  H   UNL     1      -1.708  -3.321  -1.053  1.00  0.00     0.123 HD
ATOM     14  C   UNL     1       3.397   0.944   0.094  1.00  0.00     0.087 C 
ATOM     15  O   UNL     1       1.918   2.043  -1.424  1.00  0.00    -0.287 OA
ATOM     16  O   UNL     1       2.414  -1.290   2.726  1.00  0.00    -0.287 OA
ATOM     17  C   UNL     1       3.510   0.114   1.150  1.00  0.00     0.026 C 
ATOM     18  C   UNL     1       4.810  -0.259   1.804  1.00  0.00     0.051 C 
BRANCH   3  19
ATOM     19  O   UNL     1      -2.253   0.364   1.440  1.00  0.00    -0.356 OA
ATOM     20  C   UNL     1      -3.276   1.099   0.791  1.00  0.00     0.198 C 
ENDBRANCH   3  19
BRANCH  14  21
ATOM     21  N   UNL     1       4.457   1.598  -0.529  1.00  0.00    -0.395 N 
ATOM     22  H   UNL     1       5.160   1.940   0.121  1.00  0.00     0.156 HD
ATOM     23  H   UNL     1       4.105   2.347  -1.134  1.00  0.00     0.156 HD
ENDBRANCH  14  21
ENDBRANCH   1   2
BRANCH   1  24
ATOM     24  O   UNL     1      -2.071   0.246  -2.306  1.00  0.00    -0.449 OA
BRANCH  24  25
ATOM     25  C   UNL     1      -2.660   1.424  -2.603  1.00  0.00     0.404 C 
ATOM     26  N   UNL     1      -3.905   1.205  -3.081  1.00  0.00    -0.335 N 
ATOM     27  O   UNL     1      -2.179   2.533  -2.461  1.00  0.00    -0.225 OA
ATOM     28  H   UNL     1      -4.381   1.993  -3.499  1.00  0.00     0.163 HD
ATOM     29  H   UNL     1      -4.147   0.272  -3.376  1.00  0.00     0.163 HD
ENDBRANCH  24  25
ENDBRANCH   1  24
TORSDOF 5
