REMARK SMILES Cc1ccc(C(C)C)c(O)c1
REMARK SMILES IDX 1 1 2 2 3 3 4 4 5 5 9 6 11 7 10 8 6 10 7 11 8 12
REMARK H PARENT 10 9
REMARK Flexibility Score: inf
ROOT
ATOM      1  C   UNL     1       3.833   0.507  -0.041  1.00  0.00     0.044 C 
ATOM      2  C   UNL     1       2.365   0.199  -0.040  1.00  0.00    -0.047 A 
ATOM      3  C   UNL     1       1.920  -1.125  -0.043  1.00  0.00     0.004 A 
ATOM      4  C   UNL     1       0.552  -1.413  -0.011  1.00  0.00     0.008 A 
ATOM      5  C   UNL     1      -0.407  -0.386   0.037  1.00  0.00    -0.004 A 
ATOM      6  C   UNL     1       0.054   0.936   0.055  1.00  0.00     0.119 A 
ATOM      7  C   UNL     1       1.422   1.230   0.022  1.00  0.00     0.049 A 
ENDROOT
BRANCH   6   8
ATOM      8  O   UNL     1      -0.846   1.962   0.108  1.00  0.00    -0.508 OA
ATOM      9  H   UNL     1      -0.363   2.804   0.110  1.00  0.00     0.293 HD
ENDBRANCH   6   8
BRANCH   5  10
ATOM     10  C   UNL     1      -1.879  -0.767   0.070  1.00  0.00     0.017 C 
ATOM     11  C   UNL     1      -2.640  -0.265  -1.160  1.00  0.00     0.012 C 
ATOM     12  C   UNL     1      -2.565  -0.332   1.367  1.00  0.00     0.012 C 
ENDBRANCH   5  10
TORSDOF 2
