REMARK SMILES Nc1ncn([C@H]2C[C@H](O)[C@@H](CO)O2)c(=O)n1
REMARK SMILES IDX 6 1 7 2 8 3 10 4 13 5 5 6 1 7 2 8 3 11 16 12 4 13 14 14
REMARK SMILES IDX 15 15 9 16 11 18 12 19
REMARK H PARENT 1 9 1 10 9 17 12 20
REMARK Flexibility Score: inf
ROOT
ATOM      1  C   UNL     1      -0.038  -0.497   0.910  1.00  0.00     0.228 C 
ATOM      2  C   UNL     1      -0.971   0.680   1.148  1.00  0.00     0.090 C 
ATOM      3  C   UNL     1      -2.329   0.021   1.103  1.00  0.00     0.150 C 
ATOM      4  C   UNL     1      -2.151  -1.115   0.096  1.00  0.00     0.175 C 
ATOM      5  O   UNL     1      -0.740  -1.443   0.083  1.00  0.00    -0.349 OA
ENDROOT
BRANCH   1   6
ATOM      6  N   UNL     1       1.227  -0.140   0.311  1.00  0.00    -0.255 N 
ATOM      7  N   UNL     1       4.641   1.161  -1.308  1.00  0.00    -0.368 N 
ATOM      8  C   UNL     1       3.479   0.779  -0.726  1.00  0.00     0.226 C 
ATOM      9  H   UNL     1       4.503   1.629  -2.193  1.00  0.00     0.159 HD
ATOM     10  H   UNL     1       5.258   1.643  -0.667  1.00  0.00     0.159 HD
ATOM     11  N   UNL     1       2.424   0.575  -1.550  1.00  0.00    -0.203 NA
ATOM     12  N   UNL     1       3.421   0.657   0.554  1.00  0.00    -0.157 NA
ATOM     13  C   UNL     1       1.353   0.115  -1.011  1.00  0.00     0.210 C 
ATOM     14  C   UNL     1       2.246   0.277   1.131  1.00  0.00     0.354 C 
ATOM     15  O   UNL     1       2.098   0.330   2.351  1.00  0.00    -0.245 OA
ENDBRANCH   1   6
BRANCH   3  16
ATOM     16  O   UNL     1      -2.651  -0.497   2.399  1.00  0.00    -0.390 OA
ATOM     17  H   UNL     1      -2.059  -1.240   2.609  1.00  0.00     0.211 HD
ENDBRANCH   3  16
BRANCH   4  18
ATOM     18  C   UNL     1      -2.594  -0.752  -1.327  1.00  0.00     0.190 C 
BRANCH  18  19
ATOM     19  O   UNL     1      -2.026   0.482  -1.756  1.00  0.00    -0.394 OA
ATOM     20  H   UNL     1      -2.310   0.620  -2.677  1.00  0.00     0.210 HD
ENDBRANCH  18  19
ENDBRANCH   4  18
TORSDOF 4
