REMARK SMILES CCc1cc2c(s1)N(C)C(=O)CN=C2c1ccccc1Cl
REMARK SMILES IDX 3 1 4 2 5 3 6 4 7 5 2 6 1 7 14 8 13 9 15 10 16 11 20 12
REMARK SMILES IDX 17 13 19 14 21 15 18 16 12 17 8 19 9 20 10 21 11 22
REMARK H PARENT
REMARK Flexibility Score: 90.00
ROOT
ATOM      1  C   UNL     1       2.097  -1.007  -0.199  1.00  0.00     0.007 A 
ATOM      2  C   UNL     1       0.749  -0.924  -0.467  1.00  0.00     0.028 A 
ATOM      3  C   UNL     1       0.175   0.351  -0.118  1.00  0.00     0.036 A 
ATOM      4  C   UNL     1       1.144   1.202   0.391  1.00  0.00     0.107 A 
ATOM      5  S   UNL     1       2.671   0.435   0.500  1.00  0.00    -0.122 S 
ENDROOT
BRANCH   1   6
ATOM      6  C   UNL     1       3.020  -2.165  -0.431  1.00  0.00     0.043 C 
ATOM      7  C   UNL     1       3.611  -2.140  -1.833  1.00  0.00     0.010 C 
ENDBRANCH   1   6
BRANCH   3   8
ATOM      8  C   UNL     1      -1.247   0.674  -0.211  1.00  0.00     0.077 C 
ATOM      9  N   UNL     1      -1.708   1.844  -0.480  1.00  0.00    -0.274 NA
BRANCH   8  10
ATOM     10  C   UNL     1      -2.208  -0.414   0.066  1.00  0.00     0.019 A 
ATOM     11  C   UNL     1      -2.413  -0.788   1.401  1.00  0.00     0.012 A 
ATOM     12  C   UNL     1      -2.911  -1.046  -0.964  1.00  0.00     0.050 A 
ATOM     13  C   UNL     1      -3.321  -1.802   1.703  1.00  0.00     0.001 A 
ATOM     14  C   UNL     1      -3.819  -2.061  -0.652  1.00  0.00     0.021 A 
ATOM     15  Cl  UNL     1      -2.666  -0.654  -2.627  1.00  0.00    -0.084 Cl
ATOM     16  C   UNL     1      -4.023  -2.438   0.678  1.00  0.00     0.002 A 
ENDBRANCH   8  10
BRANCH   9  17
ATOM     17  C   UNL     1      -0.760   2.897  -0.828  1.00  0.00     0.243 CG0
ATOM     18  G   UNL     1       0.031   3.360   0.389  1.00  0.00     0.000 G0
ENDBRANCH   9  17
ENDBRANCH   3   8
BRANCH   4  19
ATOM     19  N   UNL     1       1.056   2.525   0.848  1.00  0.00    -0.305 N 
ATOM     20  C   UNL     1       2.016   3.114   1.781  1.00  0.00     0.154 C 
BRANCH  19  21
ATOM     21  C   UNL     1       0.031   3.360   0.389  1.00  0.00     0.249 CG0
ATOM     22  O   UNL     1      -0.185   4.475   0.874  1.00  0.00    -0.272 OA
ATOM     23  G   UNL     1      -0.760   2.897  -0.828  1.00  0.00     0.000 G0
ENDBRANCH  19  21
ENDBRANCH   4  19
TORSDOF 2
