REMARK SMILES CN(C)C/C=C(/c1ccc(Br)cc1)c1cccnc1
REMARK SMILES IDX 4 1 2 2 1 3 3 4 5 5 6 6 7 7 8 8 13 9 9 10 12 11 10 12 11 13
REMARK SMILES IDX 14 14 15 15 19 16 16 17 18 18 17 19
REMARK H PARENT
REMARK Flexibility Score: inf
ROOT
ATOM      1  C   UNL     1      -1.885  -0.660   0.540  1.00  0.00     0.112 C 
ENDROOT
BRANCH   1   2
ATOM      2  N   UNL     1      -2.717  -1.377  -0.443  1.00  0.00    -0.306 NA
ATOM      3  C   UNL     1      -2.823  -2.805  -0.130  1.00  0.00     0.105 C 
ATOM      4  C   UNL     1      -4.059  -0.790  -0.491  1.00  0.00     0.105 C 
ENDBRANCH   1   2
BRANCH   1   5
ATOM      5  C   UNL     1      -0.415  -0.855   0.268  1.00  0.00    -0.002 C 
ATOM      6  C   UNL     1       0.545   0.089   0.143  1.00  0.00    -0.012 C 
BRANCH   6   7
ATOM      7  C   UNL     1       1.918  -0.369  -0.195  1.00  0.00    -0.018 A 
ATOM      8  C   UNL     1       3.008   0.040   0.586  1.00  0.00     0.010 A 
ATOM      9  C   UNL     1       2.156  -1.180  -1.317  1.00  0.00     0.010 A 
ATOM     10  C   UNL     1       4.307  -0.367   0.266  1.00  0.00     0.016 A 
ATOM     11  C   UNL     1       3.453  -1.588  -1.639  1.00  0.00     0.016 A 
ATOM     12  C   UNL     1       4.522  -1.180  -0.845  1.00  0.00     0.018 A 
ATOM     13  Br  UNL     1       6.278  -1.730  -1.279  1.00  0.00    -0.051 Br
ENDBRANCH   6   7
BRANCH   6  14
ATOM     14  C   UNL     1       0.223   1.517   0.343  1.00  0.00     0.000 A 
ATOM     15  C   UNL     1      -0.061   2.036   1.610  1.00  0.00     0.012 A 
ATOM     16  C   UNL     1       0.221   2.406  -0.729  1.00  0.00     0.119 A 
ATOM     17  C   UNL     1      -0.343   3.392   1.752  1.00  0.00     0.021 A 
ATOM     18  N   UNL     1      -0.049   3.730  -0.620  1.00  0.00    -0.264 NA
ATOM     19  C   UNL     1      -0.325   4.190   0.619  1.00  0.00     0.111 A 
ENDBRANCH   6  14
ENDBRANCH   1   5
TORSDOF 4
