REMARK SMILES NC(=O)N1c2ccccc2C=Cc2ccccc21
REMARK SMILES IDX 1 1 2 2 3 3 4 4 5 7 6 8 10 9 7 10 9 11 8 12 11 13 18 15
REMARK SMILES IDX 13 16 17 17 14 18 16 19 15 20 12 21
REMARK H PARENT 1 5 1 6
REMARK Flexibility Score: 30.00
ROOT
ATOM      1  N   UNL     1       0.994   2.664  -1.695  1.00  0.00    -0.351 N 
ATOM      2  C   UNL     1      -0.185   2.169  -1.208  1.00  0.00     0.323 C 
ATOM      3  O   UNL     1      -1.190   2.858  -1.371  1.00  0.00    -0.248 OA
ATOM      4  N   UNL     1      -0.120   0.884  -0.655  1.00  0.00    -0.262 N 
ATOM      5  H   UNL     1       0.864   3.500  -2.250  1.00  0.00     0.161 HD
ATOM      6  H   UNL     1       1.626   1.984  -2.094  1.00  0.00     0.161 HD
ENDROOT
BRANCH   4   7
ATOM      7  C   UNL     1       1.103   0.318  -0.147  1.00  0.00     0.058 A 
ATOM      8  C   UNL     1       1.979   1.139   0.592  1.00  0.00     0.027 A 
ATOM      9  C   UNL     1       1.459  -1.029  -0.350  1.00  0.00    -0.001 A 
ATOM     10  C   UNL     1       3.181   0.647   1.105  1.00  0.00     0.002 A 
ATOM     11  C   UNL     1       2.680  -1.508   0.160  1.00  0.00     0.010 A 
ATOM     12  C   UNL     1       3.532  -0.678   0.887  1.00  0.00     0.001 A 
BRANCH   9  13
ATOM     13  C   UNL     1       0.671  -1.959  -1.162  1.00  0.00     0.011 CG0
ATOM     14  G   UNL     1      -0.665  -2.012  -1.174  1.00  0.00     0.000 G0
ENDBRANCH   9  13
ENDBRANCH   4   7
BRANCH   4  15
ATOM     15  C   UNL     1      -1.317   0.231  -0.189  1.00  0.00     0.058 A 
ATOM     16  C   UNL     1      -1.548  -1.146  -0.385  1.00  0.00    -0.001 A 
ATOM     17  C   UNL     1      -2.303   0.982   0.480  1.00  0.00     0.027 A 
ATOM     18  C   UNL     1      -2.739  -1.727   0.088  1.00  0.00     0.010 A 
ATOM     19  C   UNL     1      -3.476   0.391   0.954  1.00  0.00     0.002 A 
ATOM     20  C   UNL     1      -3.694  -0.966   0.761  1.00  0.00     0.001 A 
BRANCH  16  21
ATOM     21  C   UNL     1      -0.665  -2.012  -1.174  1.00  0.00     0.011 CG0
ATOM     22  G   UNL     1       0.671  -1.959  -1.162  1.00  0.00     0.000 G0
ENDBRANCH  16  21
ENDBRANCH   4  15
TORSDOF 0
