REMARK SMILES COc1cc2c(cc1OC)C(=O)C(CC1CCN(Cc3ccccc3)CC1)C2
REMARK SMILES IDX 15 1 16 2 17 3 18 4 26 5 27 6 14 7 13 8 3 9 4 10 8 11 5 12
REMARK SMILES IDX 7 13 6 14 28 15 11 16 12 17 2 18 1 19 9 20 10 21 19 22 20 23
REMARK SMILES IDX 21 24 25 25 22 26 24 27 23 28
REMARK H PARENT
REMARK Flexibility Score: inf
ROOT
ATOM      1  C   UNL     1       0.887  -0.357  -1.277  1.00  0.00    -0.008 C 
ATOM      2  C   UNL     1       1.821   0.736  -0.715  1.00  0.00     0.019 C 
ATOM      3  C   UNL     1       3.306   0.499  -1.030  1.00  0.00     0.085 C 
ATOM      4  N   UNL     1       3.609  -0.930  -0.980  1.00  0.00    -0.299 NA
ATOM      5  C   UNL     1       2.918  -1.667  -2.050  1.00  0.00     0.085 C 
ATOM      6  C   UNL     1       1.568  -1.058  -2.458  1.00  0.00     0.019 C 
ENDROOT
BRANCH   1   7
ATOM      7  C   UNL     1      -0.487   0.203  -1.694  1.00  0.00     0.016 C 
BRANCH   7   8
ATOM      8  C   UNL     1      -1.304   0.803  -0.543  1.00  0.00     0.066 C 
ATOM      9  C   UNL     1      -5.991   0.933   0.312  1.00  0.00     0.161 A 
ATOM     10  C   UNL     1      -4.993   1.596  -0.421  1.00  0.00     0.055 A 
ATOM     11  C   UNL     1      -5.668  -0.207   1.100  1.00  0.00     0.161 A 
ATOM     12  C   UNL     1      -3.690   1.125  -0.354  1.00  0.00    -0.033 A 
ATOM     13  C   UNL     1      -4.350  -0.671   1.153  1.00  0.00     0.062 A 
ATOM     14  C   UNL     1      -3.397   0.015   0.421  1.00  0.00     0.025 A 
ATOM     15  C   UNL     1      -2.489   1.656  -1.070  1.00  0.00     0.048 C 
ATOM     16  C   UNL     1      -1.971  -0.262   0.315  1.00  0.00     0.166 C 
ATOM     17  O   UNL     1      -1.435  -1.207   0.866  1.00  0.00    -0.294 OA
BRANCH   9  18
ATOM     18  O   UNL     1      -7.315   1.306   0.321  1.00  0.00    -0.493 OA
ATOM     19  C   UNL     1      -7.666   2.508  -0.347  1.00  0.00     0.278 C 
ENDBRANCH   9  18
BRANCH  11  20
ATOM     20  O   UNL     1      -6.716  -0.786   1.774  1.00  0.00    -0.493 OA
ATOM     21  C   UNL     1      -6.426  -1.899   2.609  1.00  0.00     0.278 C 
ENDBRANCH  11  20
ENDBRANCH   7   8
ENDBRANCH   1   7
BRANCH   4  22
ATOM     22  C   UNL     1       5.052  -1.214  -1.002  1.00  0.00     0.120 C 
BRANCH  22  23
ATOM     23  C   UNL     1       5.779  -0.779   0.254  1.00  0.00    -0.034 A 
ATOM     24  C   UNL     1       6.948  -0.010   0.170  1.00  0.00     0.005 A 
ATOM     25  C   UNL     1       5.320  -1.173   1.521  1.00  0.00     0.005 A 
ATOM     26  C   UNL     1       7.633   0.371   1.327  1.00  0.00     0.000 A 
ATOM     27  C   UNL     1       6.003  -0.790   2.677  1.00  0.00     0.000 A 
ATOM     28  C   UNL     1       7.159  -0.017   2.579  1.00  0.00     0.000 A 
ENDBRANCH  22  23
ENDBRANCH   4  22
TORSDOF 6
