REMARK SMILES CN(C)CCC(c1ccc(Br)cc1)c1ccccn1
REMARK SMILES IDX 5 1 4 2 2 3 1 4 3 5 6 6 7 7 8 8 13 9 9 10 12 11 10 12 11 13
REMARK SMILES IDX 14 14 15 15 19 16 16 17 18 18 17 19
REMARK H PARENT
REMARK Flexibility Score: inf
ROOT
ATOM      1  C   UNL     1       0.824  -0.729  -0.554  1.00  0.00     0.030 C 
ENDROOT
BRANCH   1   2
ATOM      2  C   UNL     1       2.007   0.233  -0.752  1.00  0.00     0.085 C 
BRANCH   2   3
ATOM      3  N   UNL     1       3.312  -0.449  -0.660  1.00  0.00    -0.309 NA
ATOM      4  C   UNL     1       3.628  -0.849   0.713  1.00  0.00     0.104 C 
ATOM      5  C   UNL     1       4.370   0.428  -1.170  1.00  0.00     0.104 C 
ENDBRANCH   2   3
ENDBRANCH   1   2
BRANCH   1   6
ATOM      6  C   UNL     1      -0.539  -0.029  -0.773  1.00  0.00     0.069 C 
BRANCH   6   7
ATOM      7  C   UNL     1      -0.894   1.078   0.221  1.00  0.00    -0.039 A 
ATOM      8  C   UNL     1      -1.719   2.132  -0.213  1.00  0.00     0.005 A 
ATOM      9  C   UNL     1      -0.467   1.075   1.559  1.00  0.00     0.005 A 
ATOM     10  C   UNL     1      -2.089   3.161   0.655  1.00  0.00     0.016 A 
ATOM     11  C   UNL     1      -0.836   2.105   2.429  1.00  0.00     0.016 A 
ATOM     12  C   UNL     1      -1.643   3.144   1.973  1.00  0.00     0.017 A 
ATOM     13  Br  UNL     1      -2.141   4.534   3.153  1.00  0.00    -0.051 Br
ENDBRANCH   6   7
BRANCH   6  14
ATOM     14  C   UNL     1      -1.656  -1.062  -0.895  1.00  0.00     0.048 A 
ATOM     15  C   UNL     1      -2.026  -1.869   0.182  1.00  0.00     0.024 A 
ATOM     16  N   UNL     1      -2.262  -1.157  -2.107  1.00  0.00    -0.261 NA
ATOM     17  C   UNL     1      -3.049  -2.798   0.010  1.00  0.00     0.003 A 
ATOM     18  C   UNL     1      -3.251  -2.068  -2.243  1.00  0.00     0.111 A 
ATOM     19  C   UNL     1      -3.676  -2.902  -1.225  1.00  0.00     0.020 A 
ENDBRANCH   6  14
ENDBRANCH   1   6
TORSDOF 5
