REMARK SMILES CN(C(=O)/C=C/c1ccoc1)[C@@H]1CC[C@@]2(O)[C@H]3Cc4ccc(O)c5c4[C@@]2(CCN3CC2CC2)[C@H]1O5
REMARK SMILES IDX 1 1 2 2 3 3 4 4 5 5 6 6 7 7 8 8 11 9 9 10 10 11 12 12 13 13
REMARK SMILES IDX 34 14 14 15 26 16 35 17 15 18 25 19 27 20 24 21 17 22 19 23
REMARK SMILES IDX 28 24 22 25 18 26 29 27 20 28 21 29 16 30 23 32 30 34 31 35
REMARK SMILES IDX 32 36 33 37
REMARK H PARENT 16 31 23 33
REMARK Flexibility Score: inf
ROOT
ATOM      1  C   UNL     1       3.193   1.632   0.825  1.00  0.00     0.147 C 
ATOM      2  N   UNL     1       2.865   0.474   0.000  1.00  0.00    -0.335 N 
ENDROOT
BRANCH   2   3
ATOM      3  C   UNL     1       3.819  -0.343  -0.598  1.00  0.00     0.246 C 
ATOM      4  O   UNL     1       3.565  -1.111  -1.524  1.00  0.00    -0.270 OA
BRANCH   3   5
ATOM      5  C   UNL     1       5.195  -0.281  -0.036  1.00  0.00     0.072 C 
ATOM      6  C   UNL     1       6.232  -0.749  -0.749  1.00  0.00     0.017 C 
BRANCH   6   7
ATOM      7  C   UNL     1       7.589  -0.778  -0.312  1.00  0.00     0.013 A 
ATOM      8  C   UNL     1       8.169  -0.272   0.879  1.00  0.00     0.050 A 
ATOM      9  C   UNL     1       8.624  -1.339  -1.029  1.00  0.00     0.202 A 
ATOM     10  C   UNL     1       9.513  -0.558   0.803  1.00  0.00     0.195 A 
ATOM     11  O   UNL     1       9.797  -1.207  -0.355  1.00  0.00    -0.472 OA
ENDBRANCH   6   7
ENDBRANCH   3   5
ENDBRANCH   2   3
BRANCH   2  12
ATOM     12  C   UNL     1       1.438   0.216  -0.322  1.00  0.00     0.127 C 
ATOM     13  C   UNL     1       1.002   1.037  -1.544  1.00  0.00     0.032 C 
ATOM     14  C   UNL     1       0.470   0.375   0.899  1.00  0.00     0.209 C 
ATOM     15  C   UNL     1      -0.440   0.709  -1.945  1.00  0.00     0.040 C 
ATOM     16  C   UNL     1      -1.025   0.436   0.529  1.00  0.00     0.070 C 
ATOM     17  O   UNL     1       0.633  -0.799   1.774  1.00  0.00    -0.483 OA
ATOM     18  C   UNL     1      -1.414   1.062  -0.809  1.00  0.00     0.094 C 
ATOM     19  C   UNL     1      -1.243  -1.043   0.488  1.00  0.00     0.014 A 
ATOM     20  C   UNL     1      -1.894   1.031   1.670  1.00  0.00     0.034 C 
ATOM     21  C   UNL     1      -0.307  -1.680   1.283  1.00  0.00     0.165 A 
ATOM     22  C   UNL     1      -2.904   0.607  -1.064  1.00  0.00     0.094 C 
ATOM     23  C   UNL     1      -2.183  -1.721  -0.268  1.00  0.00    -0.038 A 
ATOM     24  C   UNL     1      -3.222   1.644   1.183  1.00  0.00     0.086 C 
ATOM     25  C   UNL     1      -0.344  -3.046   1.440  1.00  0.00     0.158 A 
ATOM     26  C   UNL     1      -3.014  -0.943  -1.258  1.00  0.00     0.058 C 
ATOM     27  N   UNL     1      -3.834   0.938   0.055  1.00  0.00    -0.297 NA
ATOM     28  C   UNL     1      -2.220  -3.109  -0.129  1.00  0.00     0.008 A 
ATOM     29  C   UNL     1      -1.317  -3.767   0.737  1.00  0.00     0.050 A 
BRANCH  18  30
ATOM     30  O   UNL     1      -1.336   2.500  -0.699  1.00  0.00    -0.387 OA
ATOM     31  H   UNL     1      -1.896   2.879  -1.399  1.00  0.00     0.211 HD
ENDBRANCH  18  30
BRANCH  25  32
ATOM     32  O   UNL     1       0.570  -3.668   2.232  1.00  0.00    -0.504 OA
ATOM     33  H   UNL     1       0.427  -4.626   2.179  1.00  0.00     0.293 HD
ENDBRANCH  25  32
BRANCH  27  34
ATOM     34  C   UNL     1      -5.071   1.563  -0.423  1.00  0.00     0.088 C 
BRANCH  34  35
ATOM     35  C   UNL     1      -6.158   1.480   0.610  1.00  0.00     0.003 C 
ATOM     36  C   UNL     1      -6.735   0.145   1.011  1.00  0.00     0.005 C 
ATOM     37  C   UNL     1      -7.567   1.110   0.216  1.00  0.00     0.005 C 
ENDBRANCH  34  35
ENDBRANCH  27  34
ENDBRANCH   2  12
TORSDOF 8
