REMARK SMILES Nc1nc(/C(=C/CC(=O)O)C(=O)N[C@@H]2C(=O)N3C(C(=O)O)=CCS[C@H]23)cs1
REMARK SMILES IDX 11 1 12 2 13 3 5 5 6 6 4 7 2 8 3 9 27 10 26 11 1 12 7 15
REMARK SMILES IDX 8 16 9 17 10 18 14 20 15 21 25 22 16 23 17 24 24 25 18 26
REMARK SMILES IDX 23 27 22 28 19 29 20 30 21 31
REMARK H PARENT 13 4 1 13 1 14 10 19 21 32
REMARK Flexibility Score: inf
ROOT
ATOM      1  C   UNL     1      -1.274  -0.943  -0.640  1.00  0.00     0.253 C 
ATOM      2  O   UNL     1      -1.237  -1.716  -1.594  1.00  0.00    -0.269 OA
ATOM      3  N   UNL     1      -0.497   0.186  -0.579  1.00  0.00    -0.338 N 
ATOM      4  H   UNL     1      -0.591   0.774   0.253  1.00  0.00     0.164 HD
ENDROOT
BRANCH   1   5
ATOM      5  C   UNL     1      -2.181  -1.169   0.544  1.00  0.00     0.063 C 
ATOM      6  C   UNL     1      -2.435  -2.432   0.951  1.00  0.00     0.001 C 
BRANCH   5   7
ATOM      7  C   UNL     1      -2.765  -0.030   1.196  1.00  0.00     0.089 A 
ATOM      8  C   UNL     1      -2.670   1.977   2.108  1.00  0.00     0.180 A 
ATOM      9  N   UNL     1      -1.955   1.041   1.534  1.00  0.00    -0.220 NA
ATOM     10  S   UNL     1      -4.338   1.619   2.303  1.00  0.00    -0.105 S 
ATOM     11  C   UNL     1      -4.094   0.102   1.543  1.00  0.00     0.097 A 
BRANCH   8  12
ATOM     12  N   UNL     1      -2.142   3.134   2.534  1.00  0.00    -0.375 N 
ATOM     13  H   UNL     1      -2.620   3.615   3.287  1.00  0.00     0.159 HD
ATOM     14  H   UNL     1      -1.131   3.140   2.620  1.00  0.00     0.159 HD
ENDBRANCH   8  12
ENDBRANCH   5   7
BRANCH   6  15
ATOM     15  C   UNL     1      -1.885  -3.719   0.399  1.00  0.00     0.150 C 
BRANCH  15  16
ATOM     16  C   UNL     1      -2.889  -4.393  -0.513  1.00  0.00     0.307 C 
ATOM     17  O   UNL     1      -4.064  -4.102  -0.671  1.00  0.00    -0.252 OA
BRANCH  16  18
ATOM     18  O   UNL     1      -2.363  -5.469  -1.138  1.00  0.00    -0.481 OA
ATOM     19  H   UNL     1      -3.092  -5.796  -1.704  1.00  0.00     0.296 HD
ENDBRANCH  16  18
ENDBRANCH  15  16
ENDBRANCH   6  15
ENDBRANCH   1   5
BRANCH   3  20
ATOM     20  C   UNL     1       0.569   0.453  -1.574  1.00  0.00     0.206 C 
ATOM     21  C   UNL     1       1.936  -0.265  -1.317  1.00  0.00     0.253 C 
ATOM     22  C   UNL     1       1.395   1.765  -1.406  1.00  0.00     0.181 C 
ATOM     23  O   UNL     1       2.319  -1.383  -1.066  1.00  0.00    -0.272 OA
ATOM     24  N   UNL     1       2.580   0.932  -1.343  1.00  0.00    -0.289 N 
ATOM     25  S   UNL     1       1.172   2.684   0.155  1.00  0.00    -0.130 SA
ATOM     26  C   UNL     1       3.758   1.299  -0.762  1.00  0.00     0.127 C 
ATOM     27  C   UNL     1       2.802   3.482   0.072  1.00  0.00     0.101 C 
ATOM     28  C   UNL     1       3.900   2.492  -0.157  1.00  0.00     0.018 C 
BRANCH  26  29
ATOM     29  C   UNL     1       4.916   0.367  -0.867  1.00  0.00     0.352 C 
ATOM     30  O   UNL     1       5.162  -0.365  -1.809  1.00  0.00    -0.245 OA
BRANCH  29  31
ATOM     31  O   UNL     1       5.728   0.417   0.205  1.00  0.00    -0.477 OA
ATOM     32  H   UNL     1       6.398  -0.270  -0.001  1.00  0.00     0.297 HD
ENDBRANCH  29  31
ENDBRANCH  26  29
ENDBRANCH   3  20
TORSDOF 9
