REMARK SMILES CS(=O)(=O)c1ccc(-n2cc(Cl)c(OC3CCN(c4ncc(Cl)cn4)CC3)cc2=O)c(F)c1
REMARK SMILES IDX 9 1 10 2 11 3 12 4 13 5 28 6 29 7 30 8 8 9 5 10 6 11 33 12
REMARK SMILES IDX 7 13 31 14 32 15 2 16 1 17 3 18 4 19 14 20 15 21 16 22 27 23
REMARK SMILES IDX 17 24 26 25 18 26 19 27 20 28 25 29 21 30 24 31 22 32 23 33
REMARK H PARENT
REMARK Flexibility Score: inf
ROOT
ATOM      1  N   UNL     1      -2.623   0.879   0.340  1.00  0.00    -0.280 N 
ATOM      2  C   UNL     1      -2.044   1.172  -0.899  1.00  0.00     0.119 C 
ATOM      3  C   UNL     1      -0.782   1.603  -1.032  1.00  0.00     0.099 C 
ATOM      4  Cl  UNL     1      -0.157   1.943  -2.605  1.00  0.00    -0.079 Cl
ATOM      5  C   UNL     1       0.040   1.768   0.144  1.00  0.00     0.145 C 
ATOM      6  C   UNL     1      -0.476   1.551   1.357  1.00  0.00     0.120 C 
ATOM      7  C   UNL     1      -1.872   1.066   1.523  1.00  0.00     0.258 C 
ATOM      8  O   UNL     1      -2.261   0.894   2.677  1.00  0.00    -0.269 OA
ENDROOT
BRANCH   1   9
ATOM      9  C   UNL     1      -3.995   0.416   0.429  1.00  0.00     0.084 A 
ATOM     10  C   UNL     1      -6.658  -0.529   0.580  1.00  0.00     0.070 A 
ATOM     11  C   UNL     1      -5.726  -0.920   1.539  1.00  0.00     0.022 A 
ATOM     12  C   UNL     1      -6.292   0.342  -0.441  1.00  0.00     0.061 A 
ATOM     13  C   UNL     1      -4.407  -0.454   1.457  1.00  0.00     0.031 A 
ATOM     14  C   UNL     1      -4.975   0.799  -0.509  1.00  0.00     0.148 A 
ATOM     15  F   UNL     1      -4.692   1.675  -1.486  1.00  0.00    -0.205 F 
BRANCH  10  16
ATOM     16  S   UNL     1      -8.337  -1.096   0.696  1.00  0.00     0.175 S 
ATOM     17  C   UNL     1      -8.314  -2.628  -0.198  1.00  0.00     0.163 C 
ATOM     18  O   UNL     1      -9.162  -0.157  -0.039  1.00  0.00    -0.224 OA
ATOM     19  O   UNL     1      -8.600  -1.389   2.091  1.00  0.00    -0.224 OA
ENDBRANCH  10  16
ENDBRANCH   1   9
BRANCH   5  20
ATOM     20  O   UNL     1       1.317   2.272  -0.007  1.00  0.00    -0.488 OA
BRANCH  20  21
ATOM     21  C   UNL     1       2.302   1.256  -0.274  1.00  0.00     0.177 C 
ATOM     22  C   UNL     1       3.377   1.883  -1.160  1.00  0.00     0.067 C 
ATOM     23  C   UNL     1       2.940   0.786   1.032  1.00  0.00     0.067 C 
ATOM     24  C   UNL     1       4.505   0.896  -1.434  1.00  0.00     0.123 C 
ATOM     25  C   UNL     1       4.070  -0.202   0.763  1.00  0.00     0.123 C 
ATOM     26  N   UNL     1       5.036   0.367  -0.177  1.00  0.00    -0.341 N 
BRANCH  26  27
ATOM     27  C   UNL     1       6.191  -0.410  -0.337  1.00  0.00     0.225 A 
ATOM     28  N   UNL     1       6.945  -0.242  -1.440  1.00  0.00    -0.220 NA
ATOM     29  N   UNL     1       6.529  -1.286   0.628  1.00  0.00    -0.220 NA
ATOM     30  C   UNL     1       8.074  -0.977  -1.558  1.00  0.00     0.137 A 
ATOM     31  C   UNL     1       7.666  -2.000   0.470  1.00  0.00     0.137 A 
ATOM     32  C   UNL     1       8.489  -1.884  -0.619  1.00  0.00     0.077 A 
ATOM     33  Cl  UNL     1       9.919  -2.801  -0.794  1.00  0.00    -0.081 Cl
ENDBRANCH  26  27
ENDBRANCH  20  21
ENDBRANCH   5  20
TORSDOF 5
