REMARK SMILES Cc1ccc(-c2ncc(Cl)cc2-c2ccc(S(C)(=O)=O)cc2)cn1
REMARK SMILES IDX 13 1 14 2 15 3 16 4 21 5 22 6 12 7 6 8 7 9 8 10 11 11 9 12
REMARK SMILES IDX 10 13 5 14 1 15 2 16 3 17 24 18 4 19 23 20 17 21 18 22 19 23
REMARK SMILES IDX 20 24
REMARK H PARENT
REMARK Flexibility Score: inf
ROOT
ATOM      1  C   UNL     1       0.883  -1.270  -0.711  1.00  0.00    -0.016 A 
ATOM      2  C   UNL     1       0.912  -0.167  -1.583  1.00  0.00     0.010 A 
ATOM      3  C   UNL     1       1.930   0.786  -1.503  1.00  0.00     0.021 A 
ATOM      4  C   UNL     1       2.930   0.641  -0.542  1.00  0.00     0.067 A 
ATOM      5  C   UNL     1       2.945  -0.462   0.312  1.00  0.00     0.021 A 
ATOM      6  C   UNL     1       1.923  -1.411   0.226  1.00  0.00     0.010 A 
ENDROOT
BRANCH   1   7
ATOM      7  C   UNL     1      -0.208  -2.256  -0.777  1.00  0.00     0.010 A 
ATOM      8  C   UNL     1      -1.558  -1.948  -0.497  1.00  0.00     0.080 A 
ATOM      9  N   UNL     1      -2.557  -2.868  -0.623  1.00  0.00    -0.254 NA
ATOM     10  C   UNL     1      -2.221  -4.123  -1.004  1.00  0.00     0.132 A 
ATOM     11  C   UNL     1       0.087  -3.575  -1.168  1.00  0.00     0.033 A 
ATOM     12  C   UNL     1      -0.926  -4.518  -1.280  1.00  0.00     0.060 A 
ATOM     13  Cl  UNL     1      -0.576  -6.127  -1.760  1.00  0.00    -0.083 Cl
BRANCH   8  14
ATOM     14  C   UNL     1      -2.032  -0.627  -0.052  1.00  0.00     0.019 A 
ATOM     15  C   UNL     1      -3.319   3.218   1.306  1.00  0.00     0.066 C 
ATOM     16  C   UNL     1      -2.881   1.870   0.818  1.00  0.00     0.037 A 
ATOM     17  C   UNL     1      -3.521   1.277  -0.265  1.00  0.00     0.024 A 
ATOM     18  N   UNL     1      -1.862   1.271   1.475  1.00  0.00    -0.261 NA
ATOM     19  C   UNL     1      -3.092   0.022  -0.696  1.00  0.00     0.014 A 
ATOM     20  C   UNL     1      -1.478   0.045   1.036  1.00  0.00     0.121 A 
ENDBRANCH   8  14
ENDBRANCH   1   7
BRANCH   4  21
ATOM     21  S   UNL     1       4.220   1.858  -0.431  1.00  0.00     0.175 S 
ATOM     22  C   UNL     1       3.542   3.068   0.675  1.00  0.00     0.163 C 
ATOM     23  O   UNL     1       4.359   2.466  -1.741  1.00  0.00    -0.224 OA
ATOM     24  O   UNL     1       5.355   1.233   0.222  1.00  0.00    -0.224 OA
ENDBRANCH   4  21
TORSDOF 3
