REMARK SMILES CC(=O)c1ccc2c(c1)N(CCCN1CCN(CCO)CC1)c1ccccc1S2
REMARK SMILES IDX 13 1 12 2 11 3 10 4 4 5 5 6 9 7 6 8 8 9 7 10 29 11 23 12
REMARK SMILES IDX 28 13 24 14 27 15 25 16 26 17 2 18 1 19 3 20 14 21 15 22
REMARK SMILES IDX 22 23 16 24 21 25 17 26 18 27 19 28 20 29
REMARK H PARENT 20 30
REMARK Flexibility Score: inf
ROOT
ATOM      1  C   UNL     1       0.718   0.278   0.307  1.00  0.00     0.086 C 
ENDROOT
BRANCH   1   2
ATOM      2  C   UNL     1      -0.264   1.239  -0.376  1.00  0.00     0.037 C 
BRANCH   2   3
ATOM      3  C   UNL     1      -1.151   0.583  -1.448  1.00  0.00     0.124 C 
BRANCH   3   4
ATOM      4  N   UNL     1      -2.217  -0.288  -0.879  1.00  0.00    -0.340 N 
ATOM      5  C   UNL     1      -4.797   2.223   0.196  1.00  0.00     0.019 A 
ATOM      6  C   UNL     1      -5.233   1.664   1.396  1.00  0.00     0.013 A 
ATOM      7  C   UNL     1      -3.802   1.569  -0.544  1.00  0.00     0.039 A 
ATOM      8  C   UNL     1      -4.683   0.465   1.845  1.00  0.00     0.018 A 
ATOM      9  C   UNL     1      -3.213   0.364  -0.101  1.00  0.00     0.056 A 
ATOM     10  C   UNL     1      -3.689  -0.190   1.103  1.00  0.00     0.036 A 
ATOM     11  S   UNL     1      -3.043  -1.700   1.790  1.00  0.00    -0.086 SA
ATOM     12  C   UNL     1      -1.893  -1.668  -0.766  1.00  0.00     0.055 A 
ATOM     13  C   UNL     1      -2.241  -2.420   0.372  1.00  0.00     0.036 A 
ATOM     14  C   UNL     1      -1.264  -2.356  -1.822  1.00  0.00     0.027 A 
ATOM     15  C   UNL     1      -1.920  -3.786   0.454  1.00  0.00     0.017 A 
ATOM     16  C   UNL     1      -0.948  -3.715  -1.736  1.00  0.00     0.002 A 
ATOM     17  C   UNL     1      -1.272  -4.430  -0.594  1.00  0.00     0.001 A 
BRANCH   5  18
ATOM     18  C   UNL     1      -5.421   3.503  -0.257  1.00  0.00     0.159 C 
ATOM     19  C   UNL     1      -4.910   4.164  -1.512  1.00  0.00     0.093 C 
ATOM     20  O   UNL     1      -6.334   4.003   0.395  1.00  0.00    -0.295 OA
ENDBRANCH   5  18
ENDBRANCH   3   4
ENDBRANCH   2   3
ENDBRANCH   1   2
BRANCH   1  21
ATOM     21  N   UNL     1       1.640  -0.364  -0.643  1.00  0.00    -0.301 NA
ATOM     22  C   UNL     1       2.220  -1.601  -0.074  1.00  0.00     0.100 C 
ATOM     23  C   UNL     1       2.748   0.517  -1.065  1.00  0.00     0.100 C 
ATOM     24  C   UNL     1       3.289  -1.366   1.017  1.00  0.00     0.100 C 
ATOM     25  C   UNL     1       3.851   0.751  -0.001  1.00  0.00     0.100 C 
ATOM     26  N   UNL     1       4.398  -0.511   0.540  1.00  0.00    -0.299 NA
BRANCH  26  27
ATOM     27  C   UNL     1       5.364  -0.272   1.635  1.00  0.00     0.112 C 
BRANCH  27  28
ATOM     28  C   UNL     1       6.677   0.335   1.119  1.00  0.00     0.171 C 
BRANCH  28  29
ATOM     29  O   UNL     1       7.161  -0.426   0.015  1.00  0.00    -0.395 OA
ATOM     30  H   UNL     1       6.356  -0.759  -0.431  1.00  0.00     0.210 HD
ENDBRANCH  28  29
ENDBRANCH  27  28
ENDBRANCH  26  27
ENDBRANCH   1  21
TORSDOF 8
