REMARK SMILES C[N+]1(CC2CC2)CC[C@]23c4c5ccc(O)c4O[C@H]2C(=O)CC[C@@]3(O)[C@H]1C5
REMARK SMILES IDX 1 1 2 2 7 3 8 4 9 5 10 6 11 7 12 8 13 9 14 10 16 11 17 12
REMARK SMILES IDX 18 13 19 14 20 15 21 16 22 17 23 18 25 19 26 20 3 21 4 22
REMARK SMILES IDX 5 23 6 24 24 25 15 27
REMARK H PARENT 24 26 15 28
REMARK Flexibility Score: inf
ROOT
ATOM      1  C   UNL     1      -2.405   1.745   0.510  1.00  0.00     0.334 C 
ATOM      2  N   UNL     1      -1.625   0.484   0.114  1.00  0.00    -0.321 N 
ATOM      3  C   UNL     1      -0.905   0.772  -1.207  1.00  0.00     0.265 C 
ATOM      4  C   UNL     1       0.156  -0.272  -1.561  1.00  0.00     0.081 C 
ATOM      5  C   UNL     1       1.124  -0.576  -0.395  1.00  0.00     0.083 C 
ATOM      6  C   UNL     1       1.836   0.682  -0.025  1.00  0.00     0.015 A 
ATOM      7  C   UNL     1       1.441   1.616   0.916  1.00  0.00    -0.034 A 
ATOM      8  C   UNL     1       2.253   2.742   1.062  1.00  0.00     0.008 A 
ATOM      9  C   UNL     1       3.420   2.891   0.278  1.00  0.00     0.050 A 
ATOM     10  C   UNL     1       3.807   1.896  -0.626  1.00  0.00     0.158 A 
ATOM     11  C   UNL     1       3.012   0.780  -0.743  1.00  0.00     0.166 A 
ATOM     12  O   UNL     1       3.245  -0.353  -1.487  1.00  0.00    -0.477 OA
ATOM     13  C   UNL     1       2.369  -1.344  -0.873  1.00  0.00     0.254 C 
ATOM     14  C   UNL     1       3.123  -2.078   0.254  1.00  0.00     0.174 C 
ATOM     15  O   UNL     1       4.335  -2.284   0.215  1.00  0.00    -0.295 OA
ATOM     16  C   UNL     1       2.301  -2.653   1.387  1.00  0.00     0.083 C 
ATOM     17  C   UNL     1       1.291  -1.638   1.918  1.00  0.00     0.051 C 
ATOM     18  C   UNL     1       0.351  -1.118   0.812  1.00  0.00     0.131 C 
ATOM     19  C   UNL     1      -0.584   0.074   1.296  1.00  0.00     0.223 C 
ATOM     20  C   UNL     1       0.261   1.301   1.792  1.00  0.00     0.104 C 
ENDROOT
BRANCH   2  21
ATOM     21  C   UNL     1      -2.667  -0.677  -0.079  1.00  0.00     0.267 C 
BRANCH  21  22
ATOM     22  C   UNL     1      -4.009  -0.337  -0.669  1.00  0.00     0.044 C 
ATOM     23  C   UNL     1      -4.229  -0.212  -2.158  1.00  0.00     0.010 C 
ATOM     24  C   UNL     1      -4.784  -1.395  -1.418  1.00  0.00     0.010 C 
ENDBRANCH  21  22
ENDBRANCH   2  21
BRANCH  18  25
ATOM     25  O   UNL     1      -0.478  -2.228   0.433  1.00  0.00    -0.383 OA
ATOM     26  H   UNL     1       0.051  -3.004   0.177  1.00  0.00     0.211 HD
ENDBRANCH  18  25
BRANCH  10  27
ATOM     27  O   UNL     1       4.941   1.998  -1.364  1.00  0.00    -0.504 OA
ATOM     28  H   UNL     1       5.452   2.772  -1.078  1.00  0.00     0.293 HD
ENDBRANCH  10  27
TORSDOF 4
