REMARK SMILES CC1Cc2ccccc2N1NC(=O)c1ccc(Cl)c(S(N)(=O)=O)c1
REMARK SMILES IDX 14 1 15 2 16 3 17 4 18 5 19 6 24 7 12 8 11 9 13 11 10 12
REMARK SMILES IDX 1 13 2 14 3 15 4 16 9 17 5 18 8 19 6 20 7 21 20 22 22 23
REMARK SMILES IDX 23 24 21 25
REMARK H PARENT 11 10 21 26 21 27
REMARK Flexibility Score: inf
ROOT
ATOM      1  C   UNL     1       1.712   0.019   0.330  1.00  0.00     0.043 A 
ATOM      2  C   UNL     1       2.276   0.206   1.596  1.00  0.00     0.015 A 
ATOM      3  C   UNL     1       3.572   0.717   1.711  1.00  0.00     0.023 A 
ATOM      4  C   UNL     1       4.316   1.044   0.570  1.00  0.00     0.061 A 
ATOM      5  Cl  UNL     1       5.919   1.627   0.837  1.00  0.00    -0.083 Cl
ATOM      6  C   UNL     1       3.755   0.850  -0.694  1.00  0.00     0.101 A 
ATOM      7  C   UNL     1       2.455   0.332  -0.815  1.00  0.00     0.037 A 
ENDROOT
BRANCH   1   8
ATOM      8  C   UNL     1       0.343  -0.539   0.160  1.00  0.00     0.269 C 
ATOM      9  N   UNL     1      -0.568  -0.160   1.136  1.00  0.00    -0.263 N 
ATOM     10  H   UNL     1      -0.367   0.601   1.774  1.00  0.00     0.191 HD
ATOM     11  O   UNL     1       0.122  -1.261  -0.806  1.00  0.00    -0.267 OA
BRANCH   9  12
ATOM     12  N   UNL     1      -1.941  -0.424   1.007  1.00  0.00    -0.282 N 
ATOM     13  C   UNL     1      -2.543  -2.472   2.235  1.00  0.00     0.033 C 
ATOM     14  C   UNL     1      -2.399  -1.829   0.862  1.00  0.00     0.107 C 
ATOM     15  C   UNL     1      -3.749  -1.784   0.104  1.00  0.00     0.064 C 
ATOM     16  C   UNL     1      -3.662  -0.458  -0.575  1.00  0.00    -0.021 A 
ATOM     17  C   UNL     1      -2.611   0.282  -0.027  1.00  0.00     0.061 A 
ATOM     18  C   UNL     1      -4.471   0.052  -1.578  1.00  0.00     0.006 A 
ATOM     19  C   UNL     1      -2.353   1.566  -0.483  1.00  0.00     0.028 A 
ATOM     20  C   UNL     1      -4.205   1.339  -2.046  1.00  0.00     0.000 A 
ATOM     21  C   UNL     1      -3.153   2.092  -1.502  1.00  0.00     0.002 A 
ENDBRANCH   9  12
ENDBRANCH   1   8
BRANCH   6  22
ATOM     22  S   UNL     1       4.624   1.285  -2.173  1.00  0.00     0.239 S 
ATOM     23  O   UNL     1       3.833   0.861  -3.305  1.00  0.00    -0.207 OA
ATOM     24  O   UNL     1       5.091   2.644  -2.041  1.00  0.00    -0.207 OA
BRANCH  22  25
ATOM     25  N   UNL     1       5.981   0.292  -2.141  1.00  0.00    -0.225 NA
ATOM     26  H   UNL     1       5.936  -0.460  -1.455  1.00  0.00     0.137 HD
ATOM     27  H   UNL     1       6.815   0.871  -2.022  1.00  0.00     0.137 HD
ENDBRANCH  22  25
ENDBRANCH   6  22
TORSDOF 4
