REMARK SMILES N#Cc1ccc2[nH]cc(CCCCN3CCN(c4ccc5oc(C(N)=O)cc5c4)CC3)c2c1
REMARK SMILES IDX 12 1 11 2 10 3 9 4 3 5 4 6 33 7 5 8 32 9 6 10 7 11 8 12 2 14
REMARK SMILES IDX 1 15 13 16 14 17 15 18 31 19 16 20 30 21 17 22 18 23 19 24
REMARK SMILES IDX 29 25 20 26 28 27 21 28 27 29 22 30 23 31 24 32 25 33 26 34
REMARK H PARENT 7 13 25 35 25 36
REMARK Flexibility Score: inf
ROOT
ATOM      1  C   UNL     1      -2.599   0.506   0.084  1.00  0.00     0.016 C 
ENDROOT
BRANCH   1   2
ATOM      2  C   UNL     1      -3.033   1.940  -0.244  1.00  0.00     0.006 C 
BRANCH   2   3
ATOM      3  C   UNL     1      -4.265   1.999  -1.152  1.00  0.00     0.038 C 
BRANCH   3   4
ATOM      4  C   UNL     1      -5.526   1.542  -0.485  1.00  0.00    -0.023 A 
ATOM      5  C   UNL     1      -6.869  -1.912  -1.453  1.00  0.00     0.053 A 
ATOM      6  C   UNL     1      -7.985  -1.875  -0.613  1.00  0.00     0.021 A 
ATOM      7  C   UNL     1      -5.975  -0.831  -1.496  1.00  0.00     0.030 A 
ATOM      8  C   UNL     1      -8.238  -0.766   0.200  1.00  0.00     0.028 A 
ATOM      9  C   UNL     1      -6.211   0.300  -0.685  1.00  0.00     0.004 A 
ATOM     10  C   UNL     1      -7.336   0.302   0.140  1.00  0.00     0.046 A 
ATOM     11  N   UNL     1      -7.340   1.502   0.814  1.00  0.00    -0.361 N 
ATOM     12  C   UNL     1      -6.259   2.255   0.444  1.00  0.00     0.087 A 
ATOM     13  H   UNL     1      -8.042   1.782   1.484  1.00  0.00     0.166 HD
BRANCH   5  14
ATOM     14  C   UNL     1      -6.633  -3.058  -2.280  1.00  0.00     0.099 C 
ATOM     15  N   UNL     1      -6.440  -3.985  -2.952  1.00  0.00    -0.192 NA
ENDBRANCH   5  14
ENDBRANCH   3   4
ENDBRANCH   2   3
ENDBRANCH   1   2
BRANCH   1  16
ATOM     16  C   UNL     1      -1.376   0.454   1.014  1.00  0.00     0.084 C 
BRANCH  16  17
ATOM     17  N   UNL     1      -0.194   1.129   0.466  1.00  0.00    -0.300 NA
ATOM     18  C   UNL     1       0.776   1.436   1.540  1.00  0.00     0.106 C 
ATOM     19  C   UNL     1       0.453   0.386  -0.638  1.00  0.00     0.106 C 
ATOM     20  C   UNL     1       2.198   1.756   1.027  1.00  0.00     0.132 C 
ATOM     21  C   UNL     1       1.786  -0.324  -0.296  1.00  0.00     0.132 C 
ATOM     22  N   UNL     1       2.759   0.612   0.288  1.00  0.00    -0.369 N 
BRANCH  22  23
ATOM     23  C   UNL     1       4.126   0.391   0.225  1.00  0.00     0.038 A 
ATOM     24  C   UNL     1       5.047   1.437   0.433  1.00  0.00     0.030 A 
ATOM     25  C   UNL     1       4.654  -0.888  -0.055  1.00  0.00     0.038 A 
ATOM     26  C   UNL     1       6.439   1.262   0.381  1.00  0.00     0.050 A 
ATOM     27  C   UNL     1       6.047  -1.099  -0.113  1.00  0.00     0.023 A 
ATOM     28  C   UNL     1       6.886  -0.022   0.107  1.00  0.00     0.135 A 
ATOM     29  C   UNL     1       6.900  -2.208  -0.357  1.00  0.00     0.065 A 
ATOM     30  O   UNL     1       8.186  -0.404   0.012  1.00  0.00    -0.451 OA
ATOM     31  C   UNL     1       8.204  -1.746  -0.272  1.00  0.00     0.192 A 
BRANCH  31  32
ATOM     32  C   UNL     1       9.492  -2.386  -0.423  1.00  0.00     0.284 C 
ATOM     33  N   UNL     1       9.472  -3.740  -0.634  1.00  0.00    -0.363 N 
ATOM     34  O   UNL     1      10.579  -1.817  -0.367  1.00  0.00    -0.266 OA
ATOM     35  H   UNL     1      10.370  -4.202  -0.663  1.00  0.00     0.160 HD
ATOM     36  H   UNL     1       8.638  -4.300  -0.554  1.00  0.00     0.160 HD
ENDBRANCH  31  32
ENDBRANCH  22  23
ENDBRANCH  16  17
ENDBRANCH   1  16
TORSDOF 8
