REMARK SMILES OC(CCN1CCCCC1)(c1ccccc1)C1CC2C=CC1C2
REMARK SMILES IDX 3 1 2 2 1 3 11 5 12 6 16 7 13 8 15 9 14 10 17 11 18 12 22 13
REMARK SMILES IDX 19 14 21 15 23 16 20 17 4 18 5 19 6 20 10 21 7 22 9 23 8 24
REMARK H PARENT 1 4
REMARK Flexibility Score: inf
ROOT
ATOM      1  C   UNL     1       0.204   0.544   0.021  1.00  0.00     0.056 C 
ENDROOT
BRANCH   1   2
ATOM      2  C   UNL     1      -1.003   0.487  -0.959  1.00  0.00     0.094 C 
BRANCH   2   3
ATOM      3  O   UNL     1      -0.460   0.223  -2.270  1.00  0.00    -0.385 OA
ATOM      4  H   UNL     1      -0.193  -0.708  -2.314  1.00  0.00     0.211 HD
ENDBRANCH   2   3
BRANCH   2   5
ATOM      5  C   UNL     1      -1.658   1.891  -1.037  1.00  0.00    -0.016 A 
ATOM      6  C   UNL     1      -1.922   2.650   0.119  1.00  0.00     0.007 A 
ATOM      7  C   UNL     1      -2.052   2.437  -2.274  1.00  0.00     0.007 A 
ATOM      8  C   UNL     1      -2.536   3.903   0.039  1.00  0.00     0.000 A 
ATOM      9  C   UNL     1      -2.665   3.690  -2.354  1.00  0.00     0.000 A 
ATOM     10  C   UNL     1      -2.906   4.424  -1.197  1.00  0.00     0.000 A 
ENDBRANCH   2   5
BRANCH   2  11
ATOM     11  C   UNL     1      -2.150  -0.536  -0.708  1.00  0.00     0.033 C 
ATOM     12  C   UNL     1      -1.884  -2.054  -0.995  1.00  0.00     0.015 C 
ATOM     13  C   UNL     1      -2.846  -0.585   0.683  1.00  0.00     0.018 C 
ATOM     14  C   UNL     1      -2.578  -2.755   0.196  1.00  0.00     0.012 C 
ATOM     15  C   UNL     1      -1.930  -1.173   1.728  1.00  0.00    -0.027 C 
ATOM     16  C   UNL     1      -3.751  -1.813   0.478  1.00  0.00     0.016 C 
ATOM     17  C   UNL     1      -1.763  -2.471   1.433  1.00  0.00    -0.028 C 
ENDBRANCH   2  11
ENDBRANCH   1   2
BRANCH   1  18
ATOM     18  C   UNL     1       1.181  -0.642  -0.006  1.00  0.00     0.088 C 
BRANCH  18  19
ATOM     19  N   UNL     1       2.266  -0.525   0.989  1.00  0.00    -0.303 NA
ATOM     20  C   UNL     1       3.107   0.663   0.764  1.00  0.00     0.084 C 
ATOM     21  C   UNL     1       3.038  -1.774   1.099  1.00  0.00     0.084 C 
ATOM     22  C   UNL     1       4.483   0.541   1.416  1.00  0.00     0.016 C 
ATOM     23  C   UNL     1       4.358  -1.748   0.332  1.00  0.00     0.016 C 
ATOM     24  C   UNL     1       5.271  -0.630   0.833  1.00  0.00     0.003 C 
ENDBRANCH  18  19
ENDBRANCH   1  18
TORSDOF 6
