REMARK SMILES CNC(=O)c1cc2c(Oc3ccc(NC(=O)C4(C(=O)Nc5ccc(F)cc5)CC4)cc3)ccnc2cc1OC
REMARK SMILES IDX 10 1 11 2 12 3 13 4 30 5 31 6 9 7 8 8 5 9 6 10 37 11 7 12
REMARK SMILES IDX 36 13 35 14 32 15 34 16 33 17 3 18 1 19 2 20 4 22 38 23
REMARK SMILES IDX 39 24 14 25 15 26 16 28 17 29 28 30 29 31 18 32 19 33 20 34
REMARK SMILES IDX 21 36 22 37 27 38 23 39 26 40 24 41 25 42
REMARK H PARENT 2 21 14 27 20 35
REMARK Flexibility Score: inf
ROOT
ATOM      1  C   UNL     1      -0.930   0.905  -1.234  1.00  0.00     0.127 A 
ATOM      2  C   UNL     1      -0.021   1.211  -2.244  1.00  0.00     0.049 A 
ATOM      3  C   UNL     1       1.201   0.535  -2.314  1.00  0.00     0.030 A 
ATOM      4  C   UNL     1       1.523  -0.456  -1.377  1.00  0.00     0.041 A 
ATOM      5  C   UNL     1       0.590  -0.781  -0.390  1.00  0.00     0.030 A 
ATOM      6  C   UNL     1      -0.638  -0.112  -0.324  1.00  0.00     0.049 A 
ENDROOT
BRANCH   1   7
ATOM      7  O   UNL     1      -2.114   1.608  -1.232  1.00  0.00    -0.457 OA
BRANCH   7   8
ATOM      8  C   UNL     1      -2.627   1.991  -0.008  1.00  0.00     0.138 A 
ATOM      9  C   UNL     1      -6.219   0.905  -0.343  1.00  0.00     0.082 A 
ATOM     10  C   UNL     1      -4.866   1.119  -0.653  1.00  0.00     0.032 A 
ATOM     11  C   UNL     1      -6.692   1.293   0.922  1.00  0.00     0.133 A 
ATOM     12  C   UNL     1      -3.989   1.746   0.258  1.00  0.00     0.044 A 
ATOM     13  C   UNL     1      -5.813   1.927   1.815  1.00  0.00     0.076 A 
ATOM     14  C   UNL     1      -4.480   2.164   1.507  1.00  0.00     0.078 A 
ATOM     15  C   UNL     1      -1.836   2.670   0.915  1.00  0.00     0.068 A 
ATOM     16  N   UNL     1      -3.713   2.790   2.416  1.00  0.00    -0.256 NA
ATOM     17  C   UNL     1      -2.422   3.038   2.106  1.00  0.00     0.115 A 
BRANCH   9  18
ATOM     18  C   UNL     1      -7.057   0.270  -1.413  1.00  0.00     0.254 C 
ATOM     19  C   UNL     1      -9.320  -0.274  -2.220  1.00  0.00     0.143 C 
ATOM     20  N   UNL     1      -8.422   0.306  -1.255  1.00  0.00    -0.355 N 
ATOM     21  H   UNL     1      -8.793   0.655  -0.378  1.00  0.00     0.163 HD
ATOM     22  O   UNL     1      -6.521  -0.234  -2.397  1.00  0.00    -0.269 OA
ENDBRANCH   9  18
BRANCH  11  23
ATOM     23  O   UNL     1      -8.013   1.067   1.222  1.00  0.00    -0.496 OA
ATOM     24  C   UNL     1      -8.353   0.990   2.605  1.00  0.00     0.278 C 
ENDBRANCH  11  23
ENDBRANCH   7   8
ENDBRANCH   1   7
BRANCH   4  25
ATOM     25  N   UNL     1       2.782  -1.075  -1.500  1.00  0.00    -0.325 N 
ATOM     26  C   UNL     1       3.357  -1.983  -0.636  1.00  0.00     0.240 C 
ATOM     27  H   UNL     1       3.364  -0.763  -2.271  1.00  0.00     0.169 HD
ATOM     28  O   UNL     1       2.907  -2.418   0.414  1.00  0.00    -0.274 OA
BRANCH  26  29
ATOM     29  C   UNL     1       4.720  -2.429  -1.071  1.00  0.00     0.128 C 
ATOM     30  C   UNL     1       5.041  -3.923  -1.001  1.00  0.00     0.028 C 
ATOM     31  C   UNL     1       4.817  -3.285  -2.335  1.00  0.00     0.028 C 
BRANCH  29  32
ATOM     32  C   UNL     1       5.828  -1.460  -0.793  1.00  0.00     0.240 C 
ATOM     33  O   UNL     1       6.158  -0.681  -1.677  1.00  0.00    -0.274 OA
ATOM     34  N   UNL     1       6.322  -1.553   0.491  1.00  0.00    -0.325 N 
ATOM     35  H   UNL     1       5.861  -2.223   1.097  1.00  0.00     0.169 HD
BRANCH  34  36
ATOM     36  C   UNL     1       7.373  -0.811   1.064  1.00  0.00     0.041 A 
ATOM     37  C   UNL     1       7.679  -1.072   2.409  1.00  0.00     0.029 A 
ATOM     38  C   UNL     1       8.121   0.146   0.372  1.00  0.00     0.029 A 
ATOM     39  C   UNL     1       8.725  -0.398   3.044  1.00  0.00     0.041 A 
ATOM     40  C   UNL     1       9.165   0.825   1.010  1.00  0.00     0.041 A 
ATOM     41  C   UNL     1       9.461   0.542   2.336  1.00  0.00     0.123 A 
ATOM     42  F   UNL     1      10.469   1.180   2.942  1.00  0.00    -0.207 F 
ENDBRANCH  34  36
ENDBRANCH  29  32
ENDBRANCH  26  29
ENDBRANCH   4  25
TORSDOF 8
