REMARK SMILES c1ccc(CC2=NCCN2)cc1
REMARK SMILES IDX 5 1 4 2 1 3 2 4 12 5 3 6 11 7 6 8 7 9 10 10 8 11 9 12
REMARK H PARENT 10 13
REMARK Flexibility Score: inf
ROOT
ATOM      1  C   UNL     1       0.138  -1.455   0.641  1.00  0.00     0.110 C 
ENDROOT
BRANCH   1   2
ATOM      2  C   UNL     1      -1.097  -0.659   0.294  1.00  0.00    -0.041 A 
ATOM      3  C   UNL     1      -3.366   0.852  -0.361  1.00  0.00     0.000 A 
ATOM      4  C   UNL     1      -2.584   1.209   0.736  1.00  0.00     0.000 A 
ATOM      5  C   UNL     1      -3.020  -0.257  -1.131  1.00  0.00     0.000 A 
ATOM      6  C   UNL     1      -1.454   0.458   1.062  1.00  0.00     0.004 A 
ATOM      7  C   UNL     1      -1.891  -1.010  -0.807  1.00  0.00     0.004 A 
ENDBRANCH   1   2
BRANCH   1   8
ATOM      8  C   UNL     1       1.411  -0.689   0.363  1.00  0.00     0.101 C 
ATOM      9  N   UNL     1       2.275  -0.430   1.312  1.00  0.00    -0.271 NA
ATOM     10  N   UNL     1       1.710  -0.212  -0.893  1.00  0.00    -0.372 N 
ATOM     11  C   UNL     1       3.351   0.336   0.620  1.00  0.00     0.165 C 
ATOM     12  C   UNL     1       2.784   0.741  -0.744  1.00  0.00     0.137 C 
ATOM     13  H   UNL     1       0.915   0.074  -1.456  1.00  0.00     0.161 HD
ENDBRANCH   1   8
TORSDOF 2
