REMARK SMILES NC1=NCC2c3ccccc3Cc3ccccc3N12
REMARK SMILES IDX 1 1 2 2 3 3 4 4 5 5 6 6 7 7 8 8 9 9 10 10 11 11 12 12 13 13
REMARK SMILES IDX 14 14 15 15 16 16 17 17 18 18 19 19
REMARK H PARENT 1 20 1 21
REMARK Flexibility Score: inf
ROOT
ATOM      1  N   UNL     1       2.312   2.921   0.117  1.00  0.00    -0.369 N 
ATOM      2  C   UNL     1       1.006   2.579   0.097  1.00  0.00     0.196 C 
ATOM      3  N   UNL     1       0.086   3.509   0.166  1.00  0.00    -0.250 NA
ATOM      4  C   UNL     1      -1.176   2.716   0.134  1.00  0.00     0.176 C 
ATOM      5  C   UNL     1      -0.790   1.284   0.575  1.00  0.00     0.143 C 
ATOM      6  C   UNL     1      -1.684   0.147   0.123  1.00  0.00    -0.020 A 
ATOM      7  C   UNL     1      -2.848   0.332  -0.641  1.00  0.00     0.006 A 
ATOM      8  C   UNL     1      -3.664  -0.750  -0.981  1.00  0.00     0.000 A 
ATOM      9  C   UNL     1      -3.339  -2.034  -0.558  1.00  0.00     0.000 A 
ATOM     10  C   UNL     1      -2.196  -2.241   0.208  1.00  0.00     0.004 A 
ATOM     11  C   UNL     1      -1.372  -1.160   0.558  1.00  0.00    -0.038 A 
ATOM     12  C   UNL     1      -0.110  -1.390   1.356  1.00  0.00     0.073 C 
ATOM     13  C   UNL     1       1.118  -1.143   0.513  1.00  0.00    -0.020 A 
ATOM     14  C   UNL     1       1.981  -2.241   0.292  1.00  0.00     0.006 A 
ATOM     15  C   UNL     1       3.103  -2.125  -0.520  1.00  0.00     0.000 A 
ATOM     16  C   UNL     1       3.368  -0.916  -1.138  1.00  0.00     0.002 A 
ATOM     17  C   UNL     1       2.522   0.175  -0.919  1.00  0.00     0.027 A 
ATOM     18  C   UNL     1       1.394   0.116  -0.070  1.00  0.00     0.048 A 
ATOM     19  N   UNL     1       0.610   1.261   0.124  1.00  0.00    -0.303 N 
ATOM     20  H   UNL     1       2.875   2.324   0.710  1.00  0.00     0.159 HD
ATOM     21  H   UNL     1       2.425   3.903   0.347  1.00  0.00     0.159 HD
ENDROOT
TORSDOF 0
