REMARK SMILES CCN1CCC[C@H]1CNC(=O)c1c(OC)ccc(Br)c1OC
REMARK SMILES IDX 9 1 10 2 11 3 8 5 7 6 3 7 4 8 5 9 6 10 2 11 1 12 12 13 13 14
REMARK SMILES IDX 20 15 16 16 18 17 17 18 19 19 14 20 15 21 21 22 22 23
REMARK H PARENT 9 4
REMARK Flexibility Score: inf
ROOT
ATOM      1  N   UNL     1      -0.151  -1.145   0.712  1.00  0.00    -0.350 N 
ATOM      2  C   UNL     1      -0.904  -0.016   0.945  1.00  0.00     0.258 C 
ATOM      3  O   UNL     1      -0.440   1.075   1.256  1.00  0.00    -0.269 OA
ATOM      4  H   UNL     1      -0.604  -1.969   0.336  1.00  0.00     0.163 HD
ENDROOT
BRANCH   1   5
ATOM      5  C   UNL     1       1.297  -1.128   0.806  1.00  0.00     0.135 C 
BRANCH   5   6
ATOM      6  C   UNL     1       1.970  -0.545  -0.449  1.00  0.00     0.076 C 
ATOM      7  N   UNL     1       3.441  -0.527  -0.404  1.00  0.00    -0.299 NA
ATOM      8  C   UNL     1       3.876  -0.287  -1.780  1.00  0.00     0.085 C 
ATOM      9  C   UNL     1       2.895  -1.096  -2.619  1.00  0.00     0.017 C 
ATOM     10  C   UNL     1       1.733  -1.417  -1.685  1.00  0.00     0.022 C 
BRANCH   7  11
ATOM     11  C   UNL     1       4.045   0.376   0.576  1.00  0.00     0.081 C 
ATOM     12  C   UNL     1       3.599   1.835   0.548  1.00  0.00     0.021 C 
ENDBRANCH   7  11
ENDBRANCH   5   6
ENDBRANCH   1   5
BRANCH   2  13
ATOM     13  C   UNL     1      -2.362  -0.181   0.769  1.00  0.00     0.124 A 
ATOM     14  C   UNL     1      -3.219   0.059   1.851  1.00  0.00     0.135 A 
ATOM     15  C   UNL     1      -2.897  -0.563  -0.471  1.00  0.00     0.149 A 
ATOM     16  C   UNL     1      -4.595  -0.136   1.719  1.00  0.00     0.049 A 
ATOM     17  C   UNL     1      -4.278  -0.767  -0.594  1.00  0.00     0.061 A 
ATOM     18  C   UNL     1      -5.125  -0.548   0.496  1.00  0.00     0.023 A 
ATOM     19  Br  UNL     1      -5.057  -1.355  -2.223  1.00  0.00    -0.047 Br
BRANCH  14  20
ATOM     20  O   UNL     1      -2.724   0.374   3.089  1.00  0.00    -0.496 OA
ATOM     21  C   UNL     1      -2.843   1.777   3.334  1.00  0.00     0.278 C 
ENDBRANCH  14  20
BRANCH  15  22
ATOM     22  O   UNL     1      -2.077  -0.801  -1.547  1.00  0.00    -0.495 OA
ATOM     23  C   UNL     1      -1.793   0.420  -2.238  1.00  0.00     0.278 C 
ENDBRANCH  15  22
ENDBRANCH   2  13
TORSDOF 6
