REMARK SMILES O=C1CN=C(c2ccccc2Cl)c2cc([N+](=O)[O-])ccc2N1
REMARK SMILES IDX 13 1 14 2 15 3 19 4 20 5 21 6 22 7 1 8 2 9 5 12 4 13 6 14
REMARK SMILES IDX 7 15 11 16 8 17 10 18 12 19 9 20 3 21 16 23 17 24 18 25
REMARK H PARENT 22 11
REMARK Flexibility Score: 90.00
ROOT
ATOM      1  C   UNL     1      -0.788   0.117  -0.292  1.00  0.00     0.031 A 
ATOM      2  C   UNL     1      -0.685  -1.253  -0.598  1.00  0.00     0.098 A 
ATOM      3  C   UNL     1      -1.777  -2.104  -0.391  1.00  0.00     0.270 A 
ATOM      4  C   UNL     1      -2.973  -1.608   0.134  1.00  0.00     0.088 A 
ATOM      5  C   UNL     1      -3.079  -0.246   0.426  1.00  0.00     0.034 A 
ATOM      6  C   UNL     1      -2.008   0.631   0.185  1.00  0.00     0.051 A 
ENDROOT
BRANCH   6   7
ATOM      7  N   UNL     1      -2.252   1.981   0.474  1.00  0.00    -0.324 N 
ATOM      8  O   UNL     1      -2.009   4.202   0.283  1.00  0.00    -0.273 OA
ATOM      9  C   UNL     1      -1.651   3.080  -0.079  1.00  0.00     0.246 CG0
ATOM     10  G   UNL     1      -0.658   2.859  -1.202  1.00  0.00     0.000 G0
ATOM     11  H   UNL     1      -3.050   2.230   1.046  1.00  0.00     0.170 HD
ENDBRANCH   6   7
BRANCH   1  12
ATOM     12  C   UNL     1       0.453   0.947  -0.345  1.00  0.00     0.076 C 
ATOM     13  N   UNL     1       0.532   2.179  -0.712  1.00  0.00    -0.274 NA
BRANCH  12  14
ATOM     14  C   UNL     1       1.719   0.323   0.120  1.00  0.00     0.019 A 
ATOM     15  C   UNL     1       1.880   0.123   1.498  1.00  0.00     0.012 A 
ATOM     16  C   UNL     1       2.733  -0.038  -0.773  1.00  0.00     0.050 A 
ATOM     17  C   UNL     1       3.057  -0.450   1.980  1.00  0.00     0.001 A 
ATOM     18  C   UNL     1       3.908  -0.613  -0.281  1.00  0.00     0.021 A 
ATOM     19  Cl  UNL     1       2.569   0.144  -2.481  1.00  0.00    -0.084 Cl
ATOM     20  C   UNL     1       4.069  -0.819   1.092  1.00  0.00     0.002 A 
ENDBRANCH  12  14
BRANCH  13  21
ATOM     21  C   UNL     1      -0.658   2.859  -1.202  1.00  0.00     0.243 CG0
ATOM     22  G   UNL     1      -1.651   3.080  -0.079  1.00  0.00     0.000 G0
ENDBRANCH  13  21
ENDBRANCH   1  12
BRANCH   3  23
ATOM     23  N   UNL     1      -1.658  -3.534  -0.705  1.00  0.00     0.062 N 
ATOM     24  O   UNL     1      -0.554  -3.950  -1.080  1.00  0.00    -0.258 OA
ATOM     25  O   UNL     1      -2.668  -4.238  -0.570  1.00  0.00    -0.258 OA
ENDBRANCH   3  23
TORSDOF 2
