REMARK SMILES CN1C2CCCC1CC(NC(=O)c1nn(C)c3ccccc13)C2
REMARK SMILES IDX 10 1 11 2 12 3 9 5 1 6 2 7 3 8 7 9 4 10 23 11 6 12 8 13 5 14
REMARK SMILES IDX 13 15 14 16 22 17 15 18 17 19 21 20 16 21 18 22 20 23 19 24
REMARK H PARENT 10 4
REMARK Flexibility Score: inf
ROOT
ATOM      1  N   UNL     1       0.396   0.567  -0.200  1.00  0.00    -0.348 N 
ATOM      2  C   UNL     1       1.236   0.623  -1.300  1.00  0.00     0.272 C 
ATOM      3  O   UNL     1       0.808   0.661  -2.451  1.00  0.00    -0.267 OA
ATOM      4  H   UNL     1       0.809   0.545   0.723  1.00  0.00     0.164 HD
ENDROOT
BRANCH   1   5
ATOM      5  C   UNL     1      -1.048   0.408  -0.330  1.00  0.00     0.085 C 
ATOM      6  C   UNL     1      -4.542  -1.498   1.421  1.00  0.00     0.105 C 
ATOM      7  N   UNL     1      -3.276  -0.935   0.960  1.00  0.00    -0.300 NA
ATOM      8  C   UNL     1      -3.236   0.533   1.028  1.00  0.00     0.058 C 
ATOM      9  C   UNL     1      -2.896  -1.390  -0.386  1.00  0.00     0.058 C 
ATOM     10  C   UNL     1      -4.167   1.207   0.002  1.00  0.00     0.019 C 
ATOM     11  C   UNL     1      -1.763   0.964   0.906  1.00  0.00     0.044 C 
ATOM     12  C   UNL     1      -3.811  -0.825  -1.490  1.00  0.00     0.019 C 
ATOM     13  C   UNL     1      -1.407  -1.061  -0.591  1.00  0.00     0.044 C 
ATOM     14  C   UNL     1      -4.029   0.684  -1.425  1.00  0.00     0.003 C 
ENDBRANCH   1   5
BRANCH   2  15
ATOM     15  C   UNL     1       2.670   0.649  -0.968  1.00  0.00     0.158 A 
ATOM     16  N   UNL     1       3.524   1.447  -1.635  1.00  0.00    -0.167 NA
ATOM     17  C   UNL     1       3.355  -0.104   0.039  1.00  0.00     0.033 A 
ATOM     18  N   UNL     1       4.715   1.222  -1.060  1.00  0.00    -0.267 N 
ATOM     19  C   UNL     1       4.684   0.308  -0.039  1.00  0.00     0.069 A 
ATOM     20  C   UNL     1       3.007  -1.091   0.986  1.00  0.00     0.013 A 
ATOM     21  C   UNL     1       5.880   1.924  -1.545  1.00  0.00     0.174 C 
ATOM     22  C   UNL     1       5.685  -0.197   0.804  1.00  0.00     0.028 A 
ATOM     23  C   UNL     1       3.995  -1.606   1.834  1.00  0.00     0.001 A 
ATOM     24  C   UNL     1       5.312  -1.160   1.745  1.00  0.00     0.002 A 
ENDBRANCH   2  15
TORSDOF 2
