REMARK SMILES O=C(c1ccc(NS(=O)(=O)c2cccc3cccnc23)cc1)N1CCN(CC2CC2)CC1
REMARK SMILES IDX 3 1 4 2 5 3 6 4 21 5 22 6 2 7 1 8 23 9 24 10 32 11 25 12
REMARK SMILES IDX 31 13 26 14 27 15 28 16 29 17 30 18 7 19 8 21 9 22 10 23
REMARK SMILES IDX 11 24 12 25 20 26 13 27 15 28 19 29 14 30 16 31 18 32 17 33
REMARK H PARENT 7 20
REMARK Flexibility Score: inf
ROOT
ATOM      1  C   UNL     1       0.222  -0.021  -0.152  1.00  0.00     0.040 A 
ATOM      2  C   UNL     1       1.028   1.122  -0.166  1.00  0.00     0.016 A 
ATOM      3  C   UNL     1       2.087   1.237   0.736  1.00  0.00     0.027 A 
ATOM      4  C   UNL     1       2.366   0.203   1.634  1.00  0.00     0.049 A 
ATOM      5  C   UNL     1       1.565  -0.941   1.638  1.00  0.00     0.027 A 
ATOM      6  C   UNL     1       0.505  -1.065   0.733  1.00  0.00     0.016 A 
ENDROOT
BRANCH   1   7
ATOM      7  C   UNL     1      -0.892  -0.107  -1.124  1.00  0.00     0.253 C 
ATOM      8  O   UNL     1      -0.636   0.128  -2.303  1.00  0.00    -0.269 OA
ATOM      9  N   UNL     1      -2.170  -0.415  -0.668  1.00  0.00    -0.336 N 
ATOM     10  C   UNL     1      -2.581  -0.375   0.744  1.00  0.00     0.135 C 
ATOM     11  C   UNL     1      -3.252  -0.471  -1.651  1.00  0.00     0.135 C 
ATOM     12  C   UNL     1      -4.089  -0.113   0.920  1.00  0.00     0.106 C 
ATOM     13  C   UNL     1      -4.448  -1.327  -1.189  1.00  0.00     0.106 C 
ATOM     14  N   UNL     1      -4.889  -1.105   0.199  1.00  0.00    -0.300 NA
BRANCH  14  15
ATOM     15  C   UNL     1      -6.331  -0.975   0.374  1.00  0.00     0.088 C 
BRANCH  15  16
ATOM     16  C   UNL     1      -6.896   0.329  -0.110  1.00  0.00     0.003 C 
ATOM     17  C   UNL     1      -8.268   0.758   0.349  1.00  0.00     0.005 C 
ATOM     18  C   UNL     1      -7.056   1.502   0.827  1.00  0.00     0.005 C 
ENDBRANCH  15  16
ENDBRANCH  14  15
ENDBRANCH   1   7
BRANCH   4  19
ATOM     19  N   UNL     1       3.433   0.384   2.566  1.00  0.00    -0.280 N 
ATOM     20  H   UNL     1       3.880   1.303   2.548  1.00  0.00     0.180 HD
BRANCH  19  21
ATOM     21  S   UNL     1       4.675  -0.769   2.648  1.00  0.00     0.264 S 
ATOM     22  O   UNL     1       5.715  -0.232   3.500  1.00  0.00    -0.201 OA
ATOM     23  O   UNL     1       4.084  -2.058   2.955  1.00  0.00    -0.201 OA
BRANCH  21  24
ATOM     24  C   UNL     1       5.309  -0.843   0.998  1.00  0.00     0.114 A 
ATOM     25  C   UNL     1       5.412  -2.099   0.377  1.00  0.00     0.024 A 
ATOM     26  C   UNL     1       5.690   0.346   0.371  1.00  0.00     0.091 A 
ATOM     27  C   UNL     1       5.914  -2.188  -0.914  1.00  0.00     0.002 A 
ATOM     28  C   UNL     1       6.203   0.227  -0.942  1.00  0.00     0.002 A 
ATOM     29  N   UNL     1       5.571   1.564   0.960  1.00  0.00    -0.255 NA
ATOM     30  C   UNL     1       6.311  -1.027  -1.570  1.00  0.00     0.010 A 
ATOM     31  C   UNL     1       6.606   1.388  -1.613  1.00  0.00     0.012 A 
ATOM     32  C   UNL     1       5.984   2.660   0.285  1.00  0.00     0.112 A 
ATOM     33  C   UNL     1       6.501   2.623  -0.993  1.00  0.00     0.021 A 
ENDBRANCH  21  24
ENDBRANCH  19  21
ENDBRANCH   4  19
TORSDOF 6
