REMARK SMILES CC1(C)S[C@@H]2[C@H](N3C(=O)[C@@H](c4ccccc4)NC3(C)C)C(=O)N2[C@H]1C(=O)O
REMARK SMILES IDX 1 1 2 2 3 3 4 4 5 5 6 6 21 7 22 8 23 9 24 10 25 11 26 12
REMARK SMILES IDX 27 13 7 15 8 16 18 17 9 18 10 19 17 20 19 21 20 22 11 24
REMARK SMILES IDX 12 25 16 26 13 27 15 28 14 29
REMARK H PARENT 27 14 17 23
REMARK Flexibility Score: inf
ROOT
ATOM      1  C   UNL     1      -3.599  -1.103  -1.380  1.00  0.00     0.026 C 
ATOM      2  C   UNL     1      -3.569   0.374  -0.958  1.00  0.00     0.044 C 
ATOM      3  C   UNL     1      -4.480   1.169  -1.902  1.00  0.00     0.026 C 
ATOM      4  S   UNL     1      -1.835   0.989  -1.202  1.00  0.00    -0.125 SA
ATOM      5  C   UNL     1      -1.545   1.356   0.582  1.00  0.00     0.177 C 
ATOM      6  C   UNL     1      -0.571   0.416   1.369  1.00  0.00     0.209 C 
ATOM      7  C   UNL     1      -1.869  -0.400   1.623  1.00  0.00     0.250 C 
ATOM      8  O   UNL     1      -2.188  -1.520   1.945  1.00  0.00    -0.272 OA
ATOM      9  N   UNL     1      -2.646   0.668   1.273  1.00  0.00    -0.311 N 
ATOM     10  C   UNL     1      -3.898   0.512   0.546  1.00  0.00     0.211 C 
ENDROOT
BRANCH  10  11
ATOM     11  C   UNL     1      -4.776   1.714   0.884  1.00  0.00     0.327 C 
ATOM     12  O   UNL     1      -4.412   2.845   1.163  1.00  0.00    -0.250 OA
BRANCH  11  13
ATOM     13  O   UNL     1      -6.094   1.425   0.828  1.00  0.00    -0.480 OA
ATOM     14  H   UNL     1      -6.534   2.267   1.075  1.00  0.00     0.296 HD
ENDBRANCH  11  13
ENDBRANCH  10  11
BRANCH   6  15
ATOM     15  N   UNL     1       0.579  -0.140   0.615  1.00  0.00    -0.308 N 
ATOM     16  C   UNL     1       1.440   0.696  -0.087  1.00  0.00     0.246 C 
ATOM     17  C   UNL     1       0.998  -1.516   0.575  1.00  0.00     0.090 C 
ATOM     18  O   UNL     1       1.343   1.911  -0.152  1.00  0.00    -0.273 OA
ATOM     19  C   UNL     1       2.485  -0.199  -0.726  1.00  0.00     0.176 C 
ATOM     20  N   UNL     1       2.370  -1.468   0.028  1.00  0.00    -0.280 NA
ATOM     21  C   UNL     1       1.073  -2.168   1.962  1.00  0.00     0.052 C 
ATOM     22  C   UNL     1       0.157  -2.361  -0.385  1.00  0.00     0.052 C 
ATOM     23  H   UNL     1       3.021  -1.400   0.811  1.00  0.00     0.126 HD
BRANCH  19  24
ATOM     24  C   UNL     1       3.914   0.305  -0.714  1.00  0.00    -0.022 A 
ATOM     25  C   UNL     1       4.397   1.197   0.256  1.00  0.00     0.006 A 
ATOM     26  C   UNL     1       4.815  -0.187  -1.674  1.00  0.00     0.006 A 
ATOM     27  C   UNL     1       5.733   1.605   0.248  1.00  0.00     0.000 A 
ATOM     28  C   UNL     1       6.150   0.220  -1.680  1.00  0.00     0.000 A 
ATOM     29  C   UNL     1       6.608   1.118  -0.720  1.00  0.00     0.000 A 
ENDBRANCH  19  24
ENDBRANCH   6  15
TORSDOF 4
