REMARK SMILES COC[C@H](C)Oc1cc(Oc2cnc(C(=O)N3CCC3)cn2)cc(C(=O)Nc2cnc(C)cn2)c1
REMARK SMILES IDX 7 1 35 2 24 3 23 4 9 5 8 6 6 7 4 8 5 9 3 10 2 11 1 12 25 13
REMARK SMILES IDX 26 14 27 15 28 17 34 18 29 19 33 20 30 21 31 22 32 23 10 24
REMARK SMILES IDX 11 25 22 26 12 27 21 28 13 29 14 30 15 31 16 32 17 33 18 34
REMARK SMILES IDX 20 35 19 36
REMARK H PARENT 27 16
REMARK Flexibility Score: inf
ROOT
ATOM      1  C   UNL     1       1.979  -2.090  -0.314  1.00  0.00     0.124 A 
ATOM      2  C   UNL     1       2.795  -0.985  -0.050  1.00  0.00     0.060 A 
ATOM      3  C   UNL     1       2.420   0.300  -0.463  1.00  0.00     0.047 A 
ATOM      4  C   UNL     1       1.228   0.483  -1.168  1.00  0.00     0.061 A 
ATOM      5  C   UNL     1       0.416  -0.621  -1.419  1.00  0.00     0.134 A 
ATOM      6  C   UNL     1       0.789  -1.905  -1.013  1.00  0.00     0.093 A 
ENDROOT
BRANCH   1   7
ATOM      7  O   UNL     1       2.469  -3.273   0.160  1.00  0.00    -0.488 OA
BRANCH   7   8
ATOM      8  C   UNL     1       1.705  -4.475  -0.002  1.00  0.00     0.196 C 
ATOM      9  C   UNL     1       2.007  -5.098  -1.367  1.00  0.00     0.055 C 
BRANCH   8  10
ATOM     10  C   UNL     1       2.084  -5.438   1.142  1.00  0.00     0.204 C 
BRANCH  10  11
ATOM     11  O   UNL     1       3.442  -5.875   1.031  1.00  0.00    -0.381 OA
ATOM     12  C   UNL     1       3.568  -7.290   1.029  1.00  0.00     0.195 C 
ENDBRANCH  10  11
ENDBRANCH   8  10
ENDBRANCH   7   8
ENDBRANCH   1   7
BRANCH   3  13
ATOM     13  C   UNL     1       3.332   1.438  -0.174  1.00  0.00     0.257 C 
ATOM     14  O   UNL     1       4.541   1.245  -0.180  1.00  0.00    -0.269 OA
ATOM     15  N   UNL     1       2.707   2.628   0.102  1.00  0.00    -0.305 N 
ATOM     16  H   UNL     1       1.706   2.657   0.235  1.00  0.00     0.171 HD
BRANCH  15  17
ATOM     17  C   UNL     1       3.311   3.863   0.346  1.00  0.00     0.151 A 
ATOM     18  N   UNL     1       2.436   4.841   0.667  1.00  0.00    -0.236 NA
ATOM     19  C   UNL     1       4.676   4.123   0.254  1.00  0.00     0.158 A 
ATOM     20  C   UNL     1       2.971   6.064   0.900  1.00  0.00     0.137 A 
ATOM     21  N   UNL     1       5.210   5.353   0.483  1.00  0.00    -0.256 NA
ATOM     22  C   UNL     1       4.331   6.327   0.812  1.00  0.00     0.056 A 
ATOM     23  C   UNL     1       4.867   7.695   1.096  1.00  0.00     0.068 C 
ENDBRANCH  15  17
ENDBRANCH   3  13
BRANCH   5  24
ATOM     24  O   UNL     1      -0.736  -0.462  -2.151  1.00  0.00    -0.437 OA
BRANCH  24  25
ATOM     25  C   UNL     1      -1.865  -0.088  -1.434  1.00  0.00     0.237 A 
ATOM     26  N   UNL     1      -1.826   0.038  -0.086  1.00  0.00    -0.218 NA
ATOM     27  C   UNL     1      -3.029   0.131  -2.159  1.00  0.00     0.180 A 
ATOM     28  C   UNL     1      -3.005   0.389   0.500  1.00  0.00     0.149 A 
ATOM     29  N   UNL     1      -4.206   0.480  -1.578  1.00  0.00    -0.244 NA
ATOM     30  C   UNL     1      -4.175   0.601  -0.221  1.00  0.00     0.146 A 
BRANCH  30  31
ATOM     31  C   UNL     1      -5.420   0.963   0.518  1.00  0.00     0.274 C 
ATOM     32  O   UNL     1      -5.362   1.130   1.737  1.00  0.00    -0.267 OA
ATOM     33  N   UNL     1      -6.602   1.101  -0.177  1.00  0.00    -0.337 N 
ATOM     34  C   UNL     1      -7.938   1.093   0.406  1.00  0.00     0.121 C 
ATOM     35  C   UNL     1      -7.047   0.563  -1.452  1.00  0.00     0.121 C 
ATOM     36  C   UNL     1      -8.465   0.948  -1.020  1.00  0.00     0.043 C 
ENDBRANCH  30  31
ENDBRANCH  24  25
ENDBRANCH   5  24
TORSDOF 9
