REMARK SMILES CCCCC1C(=O)N(c2ccccc2)N(c2ccccc2)C1=O
REMARK SMILES IDX 4 1 3 2 2 3 1 4 5 5 6 6 22 7 7 8 8 9 15 10 23 11 9 12 10 13
REMARK SMILES IDX 14 14 11 15 13 16 12 17 16 18 17 19 21 20 18 21 20 22 19 23
REMARK H PARENT
REMARK Flexibility Score: inf
ROOT
ATOM      1  C   UNL     1       2.519  -0.691  -0.195  1.00  0.00     0.024 C 
ENDROOT
BRANCH   1   2
ATOM      2  C   UNL     1       3.733  -0.516   0.723  1.00  0.00     0.001 C 
BRANCH   2   3
ATOM      3  C   UNL     1       5.003  -0.241  -0.083  1.00  0.00    -0.003 C 
ATOM      4  C   UNL     1       6.211  -0.068   0.823  1.00  0.00     0.004 C 
ENDBRANCH   2   3
ENDBRANCH   1   2
BRANCH   1   5
ATOM      5  C   UNL     1       1.238  -0.992   0.586  1.00  0.00     0.172 C 
ATOM      6  C   UNL     1       0.212  -1.641  -0.308  1.00  0.00     0.258 C 
ATOM      7  C   UNL     1       0.572   0.260   1.098  1.00  0.00     0.258 C 
ATOM      8  O   UNL     1       0.394  -2.709  -0.877  1.00  0.00    -0.272 OA
ATOM      9  N   UNL     1      -0.943  -0.847  -0.258  1.00  0.00    -0.213 N 
ATOM     10  N   UNL     1      -0.693   0.332   0.492  1.00  0.00    -0.213 N 
ATOM     11  O   UNL     1       1.116   1.060   1.845  1.00  0.00    -0.272 OA
BRANCH   9  12
ATOM     12  C   UNL     1      -2.248  -1.425  -0.373  1.00  0.00     0.067 A 
ATOM     13  C   UNL     1      -2.493  -2.485  -1.258  1.00  0.00     0.028 A 
ATOM     14  C   UNL     1      -3.326  -0.947   0.390  1.00  0.00     0.028 A 
ATOM     15  C   UNL     1      -3.768  -3.047  -1.377  1.00  0.00     0.002 A 
ATOM     16  C   UNL     1      -4.601  -1.508   0.272  1.00  0.00     0.002 A 
ATOM     17  C   UNL     1      -4.822  -2.558  -0.612  1.00  0.00     0.000 A 
ENDBRANCH   9  12
BRANCH  10  18
ATOM     18  C   UNL     1      -1.282   1.595   0.161  1.00  0.00     0.067 A 
ATOM     19  C   UNL     1      -2.010   1.769  -1.027  1.00  0.00     0.028 A 
ATOM     20  C   UNL     1      -1.154   2.698   1.018  1.00  0.00     0.028 A 
ATOM     21  C   UNL     1      -2.589   3.002  -1.346  1.00  0.00     0.002 A 
ATOM     22  C   UNL     1      -1.733   3.931   0.700  1.00  0.00     0.002 A 
ATOM     23  C   UNL     1      -2.451   4.082  -0.482  1.00  0.00     0.000 A 
ENDBRANCH  10  18
ENDBRANCH   1   5
TORSDOF 5
