REMARK SMILES Cc1[nH]c(=O)c(C#N)cc1-c1ccncc1
REMARK SMILES IDX 1 1 2 2 3 3 4 4 5 5 6 6 9 7 10 8 11 10 12 11 16 12 13 13
REMARK SMILES IDX 15 14 14 15 7 16 8 17
REMARK H PARENT 3 9
REMARK Flexibility Score: inf
ROOT
ATOM      1  C   UNL     1      -0.251  -2.299   0.819  1.00  0.00     0.065 C 
ATOM      2  C   UNL     1      -0.920  -1.038   0.338  1.00  0.00     0.023 C 
ATOM      3  N   UNL     1      -2.289  -1.140   0.176  1.00  0.00    -0.325 N 
ATOM      4  C   UNL     1      -3.116  -0.128  -0.251  1.00  0.00     0.266 C 
ATOM      5  O   UNL     1      -4.324  -0.302  -0.368  1.00  0.00    -0.268 OA
ATOM      6  C   UNL     1      -2.455   1.167  -0.556  1.00  0.00     0.118 C 
ATOM      7  C   UNL     1      -1.124   1.259  -0.397  1.00  0.00     0.035 C 
ATOM      8  C   UNL     1      -0.310   0.138   0.062  1.00  0.00     0.002 C 
ATOM      9  H   UNL     1      -2.757  -2.017   0.380  1.00  0.00     0.169 HD
ENDROOT
BRANCH   8  10
ATOM     10  C   UNL     1       1.148   0.294   0.220  1.00  0.00    -0.014 A 
ATOM     11  C   UNL     1       1.684   0.731   1.432  1.00  0.00     0.029 A 
ATOM     12  C   UNL     1       2.005   0.030  -0.849  1.00  0.00     0.029 A 
ATOM     13  C   UNL     1       3.058   0.873   1.526  1.00  0.00     0.111 A 
ATOM     14  C   UNL     1       3.365   0.203  -0.655  1.00  0.00     0.111 A 
ATOM     15  N   UNL     1       3.909   0.616   0.510  1.00  0.00    -0.265 NA
ENDBRANCH   8  10
BRANCH   6  16
ATOM     16  C   UNL     1      -3.232   2.265  -1.003  1.00  0.00     0.105 C 
ATOM     17  N   UNL     1      -3.814   3.200  -1.372  1.00  0.00    -0.192 NA
ENDBRANCH   6  16
TORSDOF 2
