REMARK SMILES CN1C(=O)CN=C(c2ccccc2F)c2cc([N+](=O)[O-])ccc21
REMARK SMILES IDX 15 1 16 2 17 3 21 4 22 5 23 6 2 7 1 8 3 9 4 10 7 12 6 13
REMARK SMILES IDX 8 14 9 15 13 16 10 17 12 18 14 19 11 20 5 21 18 23 19 24
REMARK SMILES IDX 20 25
REMARK H PARENT
REMARK Flexibility Score: 90.00
ROOT
ATOM      1  C   UNL     1      -0.219   0.038   0.645  1.00  0.00     0.031 A 
ATOM      2  C   UNL     1       0.391   1.157   1.247  1.00  0.00     0.098 A 
ATOM      3  C   UNL     1      -0.400   2.150   1.830  1.00  0.00     0.270 A 
ATOM      4  C   UNL     1      -1.791   2.035   1.826  1.00  0.00     0.088 A 
ATOM      5  C   UNL     1      -2.388   0.906   1.254  1.00  0.00     0.034 A 
ATOM      6  C   UNL     1      -1.619  -0.127   0.679  1.00  0.00     0.053 A 
ENDROOT
BRANCH   6   7
ATOM      7  N   UNL     1      -2.285  -1.283   0.164  1.00  0.00    -0.313 N 
ATOM      8  C   UNL     1      -3.650  -1.157  -0.329  1.00  0.00     0.153 C 
BRANCH   7   9
ATOM      9  C   UNL     1      -1.766  -2.582   0.246  1.00  0.00     0.248 CG0
ATOM     10  O   UNL     1      -2.394  -3.569  -0.148  1.00  0.00    -0.272 OA
ATOM     11  G   UNL     1      -0.414  -2.749   0.925  1.00  0.00     0.000 G0
ENDBRANCH   7   9
ENDBRANCH   6   7
BRANCH   1  12
ATOM     12  C   UNL     1       0.676  -0.913  -0.077  1.00  0.00     0.078 C 
ATOM     13  N   UNL     1       0.628  -2.195   0.066  1.00  0.00    -0.274 NA
BRANCH  12  14
ATOM     14  C   UNL     1       1.708  -0.373  -1.016  1.00  0.00     0.036 A 
ATOM     15  C   UNL     1       2.940  -1.032  -1.124  1.00  0.00     0.013 A 
ATOM     16  C   UNL     1       1.465   0.748  -1.815  1.00  0.00     0.132 A 
ATOM     17  C   UNL     1       3.920  -0.552  -1.997  1.00  0.00     0.001 A 
ATOM     18  C   UNL     1       2.440   1.228  -2.686  1.00  0.00     0.040 A 
ATOM     19  F   UNL     1       0.284   1.384  -1.776  1.00  0.00    -0.206 F 
ATOM     20  C   UNL     1       3.672   0.579  -2.775  1.00  0.00     0.003 A 
ENDBRANCH  12  14
BRANCH  13  21
ATOM     21  C   UNL     1      -0.414  -2.749   0.925  1.00  0.00     0.243 CG0
ATOM     22  G   UNL     1      -1.766  -2.582   0.246  1.00  0.00     0.000 G0
ENDBRANCH  13  21
ENDBRANCH   1  12
BRANCH   3  23
ATOM     23  N   UNL     1       0.235   3.326   2.438  1.00  0.00     0.062 N 
ATOM     24  O   UNL     1      -0.504   4.175   2.955  1.00  0.00    -0.258 OA
ATOM     25  O   UNL     1       1.471   3.395   2.400  1.00  0.00    -0.258 OA
ENDBRANCH   3  23
TORSDOF 2
