REMARK SMILES CC(C(=O)O)c1ccc2c(c1)[nH]c1ccc(Cl)cc12
REMARK SMILES IDX 1 1 2 2 3 3 4 4 5 5 6 7 7 8 11 9 8 10 10 11 9 12 12 13 19 14
REMARK SMILES IDX 13 15 18 17 14 18 16 19 15 20 17 21
REMARK H PARENT 5 6 12 16
REMARK Flexibility Score: inf
ROOT
ATOM      1  C   UNL     1      -3.650  -1.535  -1.100  1.00  0.00     0.025 C 
ATOM      2  C   UNL     1      -3.305  -0.154  -0.540  1.00  0.00     0.126 C 
ENDROOT
BRANCH   2   3
ATOM      3  C   UNL     1      -3.952   0.036   0.820  1.00  0.00     0.310 C 
ATOM      4  O   UNL     1      -4.081  -0.805   1.696  1.00  0.00    -0.252 OA
BRANCH   3   5
ATOM      5  O   UNL     1      -4.392   1.296   1.019  1.00  0.00    -0.481 OA
ATOM      6  H   UNL     1      -4.740   1.285   1.935  1.00  0.00     0.296 HD
ENDBRANCH   3   5
ENDBRANCH   2   3
BRANCH   2   7
ATOM      7  C   UNL     1      -1.803   0.079  -0.488  1.00  0.00    -0.032 A 
ATOM      8  C   UNL     1      -1.233   1.096  -1.265  1.00  0.00     0.005 A 
ATOM      9  C   UNL     1      -0.979  -0.713   0.333  1.00  0.00     0.031 A 
ATOM     10  C   UNL     1       0.147   1.340  -1.245  1.00  0.00     0.011 A 
ATOM     11  C   UNL     1       0.397  -0.452   0.340  1.00  0.00     0.047 A 
ATOM     12  C   UNL     1       0.980   0.553  -0.427  1.00  0.00     0.007 A 
ATOM     13  N   UNL     1       1.409  -1.064   1.042  1.00  0.00    -0.355 N 
ATOM     14  C   UNL     1       2.388   0.528  -0.169  1.00  0.00     0.009 A 
ATOM     15  C   UNL     1       2.626  -0.492   0.752  1.00  0.00     0.047 A 
ATOM     16  H   UNL     1       1.275  -1.831   1.684  1.00  0.00     0.167 HD
ATOM     17  C   UNL     1       3.482   1.285  -0.637  1.00  0.00     0.031 A 
ATOM     18  C   UNL     1       3.904  -0.799   1.233  1.00  0.00     0.028 A 
ATOM     19  C   UNL     1       4.763   0.988  -0.165  1.00  0.00     0.041 A 
ATOM     20  C   UNL     1       4.974  -0.036   0.755  1.00  0.00     0.022 A 
ATOM     21  Cl  UNL     1       6.106   1.908  -0.732  1.00  0.00    -0.084 Cl
ENDBRANCH   2   7
TORSDOF 3
