REMARK SMILES COc1c(C)c2c(c(O)c1C/C=C(\C)CCC(=O)OCCN1CCOCC1)C(=O)OC2
REMARK SMILES IDX 16 1 15 2 13 3 12 4 14 5 11 6 10 7 3 8 4 9 5 10 6 11 8 12
REMARK SMILES IDX 7 13 31 14 28 15 30 16 29 17 2 18 1 19 9 20 17 22 18 23
REMARK SMILES IDX 19 24 20 25 21 26 22 27 23 28 27 29 24 30 26 31 25 32
REMARK H PARENT 9 21
REMARK Flexibility Score: inf
ROOT
ATOM      1  C   UNL     1      -0.660   1.203   0.184  1.00  0.00     0.127 C 
ENDROOT
BRANCH   1   2
ATOM      2  C   UNL     1      -0.224   1.741   1.545  1.00  0.00     0.042 C 
BRANCH   2   3
ATOM      3  C   UNL     1       1.286   1.803   1.651  1.00  0.00    -0.076 C 
ATOM      4  C   UNL     1       1.964   0.799   2.241  1.00  0.00    -0.023 C 
ATOM      5  C   UNL     1       1.929   3.015   1.031  1.00  0.00     0.039 C 
BRANCH   4   6
ATOM      6  C   UNL     1       3.459   0.636   2.355  1.00  0.00     0.070 C 
BRANCH   6   7
ATOM      7  C   UNL     1       4.156   0.347   1.038  1.00  0.00     0.041 A 
ATOM      8  C   UNL     1       3.747  -0.724   0.194  1.00  0.00     0.129 A 
ATOM      9  C   UNL     1       4.297  -0.927  -1.093  1.00  0.00    -0.001 A 
ATOM     10  C   UNL     1       3.788  -2.006  -2.003  1.00  0.00     0.049 C 
ATOM     11  C   UNL     1       5.351  -0.104  -1.468  1.00  0.00     0.014 A 
ATOM     12  C   UNL     1       5.232   1.141   0.618  1.00  0.00     0.137 A 
ATOM     13  C   UNL     1       5.800   0.887  -0.619  1.00  0.00     0.109 A 
ATOM     14  C   UNL     1       6.156  -0.067  -2.708  1.00  0.00     0.270 C 
ATOM     15  C   UNL     1       6.910   1.576  -1.251  1.00  0.00     0.342 C 
ATOM     16  O   UNL     1       7.106   0.993  -2.467  1.00  0.00    -0.457 OA
ATOM     17  O   UNL     1       7.536   2.495  -0.757  1.00  0.00    -0.246 OA
BRANCH   8  18
ATOM     18  O   UNL     1       2.735  -1.563   0.602  1.00  0.00    -0.496 OA
ATOM     19  C   UNL     1       3.271  -2.679   1.317  1.00  0.00     0.278 C 
ENDBRANCH   8  18
BRANCH  12  20
ATOM     20  O   UNL     1       5.702   2.144   1.419  1.00  0.00    -0.507 OA
ATOM     21  H   UNL     1       6.453   2.591   0.972  1.00  0.00     0.293 HD
ENDBRANCH  12  20
ENDBRANCH   6   7
ENDBRANCH   4   6
ENDBRANCH   2   3
ENDBRANCH   1   2
BRANCH   1  22
ATOM     22  C   UNL     1      -2.160   1.073   0.106  1.00  0.00     0.306 C 
ATOM     23  O   UNL     1      -2.961   1.722   0.761  1.00  0.00    -0.252 OA
BRANCH  22  24
ATOM     24  O   UNL     1      -2.493   0.137  -0.828  1.00  0.00    -0.464 OA
BRANCH  24  25
ATOM     25  C   UNL     1      -3.904  -0.083  -1.005  1.00  0.00     0.248 C 
BRANCH  25  26
ATOM     26  C   UNL     1      -4.443  -1.039   0.076  1.00  0.00     0.126 C 
BRANCH  26  27
ATOM     27  N   UNL     1      -5.885  -1.300   0.085  1.00  0.00    -0.295 NA
ATOM     28  C   UNL     1      -6.375  -2.025  -1.096  1.00  0.00     0.113 C 
ATOM     29  C   UNL     1      -6.711  -0.118   0.393  1.00  0.00     0.113 C 
ATOM     30  C   UNL     1      -7.912  -2.026  -1.129  1.00  0.00     0.175 C 
ATOM     31  C   UNL     1      -7.605   0.326  -0.777  1.00  0.00     0.175 C 
ATOM     32  O   UNL     1      -8.475  -0.712  -1.251  1.00  0.00    -0.379 OA
ENDBRANCH  26  27
ENDBRANCH  25  26
ENDBRANCH  24  25
ENDBRANCH  22  24
ENDBRANCH   1  22
TORSDOF 11
