REMARK SMILES Cc1cn([C@H]2C=C[C@@H](CO)O2)c(=O)[nH]c1=O
REMARK SMILES IDX 5 1 6 2 7 3 8 4 11 5 4 6 1 7 2 8 3 9 15 10 14 11 16 12 12 13
REMARK SMILES IDX 13 15 9 16 10 17
REMARK H PARENT 14 14 10 18
REMARK Flexibility Score: inf
ROOT
ATOM      1  C   UNL     1      -1.191  -0.997   0.517  1.00  0.00     0.248 C 
ATOM      2  C   UNL     1      -1.530  -0.279   1.776  1.00  0.00     0.026 C 
ATOM      3  C   UNL     1      -2.372   0.722   1.521  1.00  0.00     0.007 C 
ATOM      4  C   UNL     1      -2.670   0.761   0.065  1.00  0.00     0.169 C 
ATOM      5  O   UNL     1      -1.752  -0.187  -0.538  1.00  0.00    -0.344 OA
ENDROOT
BRANCH   1   6
ATOM      6  N   UNL     1       0.252  -1.113   0.370  1.00  0.00    -0.270 N 
ATOM      7  C   UNL     1       3.197   0.901  -0.891  1.00  0.00     0.052 C 
ATOM      8  C   UNL     1       2.342  -0.169  -0.297  1.00  0.00     0.031 C 
ATOM      9  C   UNL     1       1.010  -0.097  -0.184  1.00  0.00     0.103 C 
ATOM     10  C   UNL     1       3.017  -1.388   0.203  1.00  0.00     0.256 C 
ATOM     11  N   UNL     1       2.202  -2.345   0.732  1.00  0.00    -0.274 N 
ATOM     12  O   UNL     1       4.234  -1.525   0.150  1.00  0.00    -0.269 OA
ATOM     13  C   UNL     1       0.842  -2.263   0.873  1.00  0.00     0.330 C 
ATOM     14  H   UNL     1       2.646  -3.174   1.094  1.00  0.00     0.175 HD
ATOM     15  O   UNL     1       0.226  -3.172   1.426  1.00  0.00    -0.248 OA
ENDBRANCH   1   6
BRANCH   4  16
ATOM     16  C   UNL     1      -2.437   2.128  -0.584  1.00  0.00     0.192 C 
BRANCH  16  17
ATOM     17  O   UNL     1      -2.682   2.053  -1.989  1.00  0.00    -0.393 OA
ATOM     18  H   UNL     1      -2.236   1.239  -2.295  1.00  0.00     0.210 HD
ENDBRANCH  16  17
ENDBRANCH   4  16
TORSDOF 3
