REMARK SMILES CCOC(=O)n1ccn(C)c1=S
REMARK SMILES IDX 4 1 5 2 3 3 2 4 1 5 6 6 7 7 11 8 8 9 9 10 12 11 10 12
REMARK H PARENT
REMARK Flexibility Score: inf
ROOT
ATOM      1  C   UNL     1       0.804  -0.690   0.433  1.00  0.00     0.420 C 
ATOM      2  O   UNL     1       1.066  -1.885   0.370  1.00  0.00    -0.223 OA
ENDROOT
BRANCH   1   3
ATOM      3  O   UNL     1       1.752   0.253   0.741  1.00  0.00    -0.449 OA
BRANCH   3   4
ATOM      4  C   UNL     1       3.076  -0.241   0.994  1.00  0.00     0.231 C 
ATOM      5  C   UNL     1       3.844  -0.374  -0.308  1.00  0.00     0.049 C 
ENDBRANCH   3   4
ENDBRANCH   1   3
BRANCH   1   6
ATOM      6  N   UNL     1      -0.451  -0.116   0.204  1.00  0.00    -0.227 N 
ATOM      7  C   UNL     1      -0.710   1.248   0.277  1.00  0.00     0.118 C 
ATOM      8  C   UNL     1      -1.699  -0.771  -0.127  1.00  0.00     0.189 C 
ATOM      9  C   UNL     1      -1.998   1.490   0.016  1.00  0.00     0.106 C 
ATOM     10  N   UNL     1      -2.635   0.302  -0.252  1.00  0.00    -0.326 N 
ATOM     11  S   UNL     1      -2.026  -2.391  -0.318  1.00  0.00    -0.039 S 
ATOM     12  C   UNL     1      -4.053   0.194  -0.522  1.00  0.00     0.152 C 
ENDBRANCH   1   6
TORSDOF 3
