REMARK SMILES CCC[C@H](N[C@@H](C)C(=O)N1[C@H](C(=O)O)C[C@@H]2CCCC[C@@H]21)C(=O)OCC
REMARK SMILES IDX 6 1 7 2 5 3 4 5 3 6 2 7 1 8 22 9 23 10 24 11 25 12 26 13
REMARK SMILES IDX 8 14 9 15 10 16 11 17 21 18 15 19 16 20 20 21 17 22 19 23
REMARK SMILES IDX 18 24 12 25 13 26 14 27
REMARK H PARENT 5 4 14 28
REMARK Flexibility Score: inf
ROOT
ATOM      1  C   UNL     1      -0.087   0.972  -0.815  1.00  0.00     0.141 C 
ATOM      2  C   UNL     1      -0.317   0.779  -2.315  1.00  0.00     0.035 C 
ENDROOT
BRANCH   1   3
ATOM      3  N   UNL     1       1.196   1.637  -0.497  1.00  0.00    -0.293 NA
ATOM      4  H   UNL     1       1.254   1.771   0.521  1.00  0.00     0.124 HD
BRANCH   3   5
ATOM      5  C   UNL     1       2.427   0.902  -0.907  1.00  0.00     0.165 C 
BRANCH   5   6
ATOM      6  C   UNL     1       3.362   1.941  -1.554  1.00  0.00     0.031 C 
BRANCH   6   7
ATOM      7  C   UNL     1       4.588   1.319  -2.235  1.00  0.00    -0.001 C 
ATOM      8  C   UNL     1       5.427   2.378  -2.938  1.00  0.00     0.004 C 
ENDBRANCH   6   7
ENDBRANCH   5   6
BRANCH   5   9
ATOM      9  C   UNL     1       3.082   0.285   0.346  1.00  0.00     0.323 C 
ATOM     10  O   UNL     1       2.911   0.715   1.485  1.00  0.00    -0.250 OA
BRANCH   9  11
ATOM     11  O   UNL     1       3.863  -0.779   0.011  1.00  0.00    -0.465 OA
BRANCH  11  12
ATOM     12  C   UNL     1       4.454  -1.485   1.106  1.00  0.00     0.229 C 
ATOM     13  C   UNL     1       3.474  -2.501   1.666  1.00  0.00     0.049 C 
ENDBRANCH  11  12
ENDBRANCH   9  11
ENDBRANCH   5   9
ENDBRANCH   3   5
ENDBRANCH   1   3
BRANCH   1  14
ATOM     14  C   UNL     1      -0.272  -0.382  -0.086  1.00  0.00     0.240 C 
ATOM     15  O   UNL     1       0.621  -1.234  -0.077  1.00  0.00    -0.273 OA
BRANCH  14  16
ATOM     16  N   UNL     1      -1.504  -0.656   0.484  1.00  0.00    -0.324 N 
ATOM     17  C   UNL     1      -1.747  -1.988   1.059  1.00  0.00     0.195 C 
ATOM     18  C   UNL     1      -2.517   0.309   0.918  1.00  0.00     0.089 C 
ATOM     19  C   UNL     1      -3.080  -1.847   1.805  1.00  0.00     0.043 C 
ATOM     20  C   UNL     1      -3.118  -0.361   2.166  1.00  0.00     0.014 C 
ATOM     21  C   UNL     1      -3.537   0.570  -0.197  1.00  0.00     0.025 C 
ATOM     22  C   UNL     1      -4.489   0.160   2.584  1.00  0.00     0.006 C 
ATOM     23  C   UNL     1      -4.811   1.221   0.324  1.00  0.00     0.002 C 
ATOM     24  C   UNL     1      -5.449   0.372   1.417  1.00  0.00     0.000 C 
BRANCH  17  25
ATOM     25  C   UNL     1      -1.870  -3.113   0.030  1.00  0.00     0.326 C 
ATOM     26  O   UNL     1      -1.963  -4.304   0.297  1.00  0.00    -0.250 OA
BRANCH  25  27
ATOM     27  O   UNL     1      -1.960  -2.700  -1.253  1.00  0.00    -0.480 OA
ATOM     28  H   UNL     1      -2.004  -3.529  -1.775  1.00  0.00     0.296 HD
ENDBRANCH  25  27
ENDBRANCH  17  25
ENDBRANCH  14  16
ENDBRANCH   1  14
TORSDOF 11
