REMARK SMILES CN1CCN(CCCN2c3ccccc3Sc3ccc(Cl)cc32)CC1
REMARK SMILES IDX 7 1 6 2 5 3 1 4 2 5 3 6 25 7 4 8 24 9 8 10 9 11 10 12 23 13
REMARK SMILES IDX 11 14 15 15 17 16 22 17 12 18 14 19 16 20 18 21 20 22 13 23
REMARK SMILES IDX 19 24 21 25
REMARK H PARENT
REMARK Flexibility Score: inf
ROOT
ATOM      1  C   UNL     1       0.055   0.182   0.613  1.00  0.00     0.037 C 
ENDROOT
BRANCH   1   2
ATOM      2  C   UNL     1       1.194   0.430   1.610  1.00  0.00     0.086 C 
BRANCH   2   3
ATOM      3  N   UNL     1       2.547   0.426   1.061  1.00  0.00    -0.301 NA
ATOM      4  C   UNL     1       6.263   0.216  -1.013  1.00  0.00     0.105 C 
ATOM      5  N   UNL     1       5.092   0.275  -0.149  1.00  0.00    -0.304 NA
ATOM      6  C   UNL     1       4.291   1.489  -0.400  1.00  0.00     0.099 C 
ATOM      7  C   UNL     1       4.261  -0.928  -0.257  1.00  0.00     0.099 C 
ATOM      8  C   UNL     1       2.786   1.378  -0.025  1.00  0.00     0.100 C 
ATOM      9  C   UNL     1       3.063  -0.913   0.732  1.00  0.00     0.100 C 
ENDBRANCH   2   3
ENDBRANCH   1   2
BRANCH   1  10
ATOM     10  C   UNL     1      -1.296   0.141   1.344  1.00  0.00     0.124 C 
BRANCH  10  11
ATOM     11  N   UNL     1      -2.419  -0.089   0.405  1.00  0.00    -0.340 N 
ATOM     12  C   UNL     1      -3.072   1.066  -0.121  1.00  0.00     0.055 A 
ATOM     13  C   UNL     1      -2.819  -1.439   0.182  1.00  0.00     0.057 A 
ATOM     14  C   UNL     1      -2.496   2.356  -0.052  1.00  0.00     0.027 A 
ATOM     15  C   UNL     1      -4.323   0.980  -0.764  1.00  0.00     0.036 A 
ATOM     16  C   UNL     1      -4.048  -1.754  -0.437  1.00  0.00     0.036 A 
ATOM     17  C   UNL     1      -2.003  -2.536   0.540  1.00  0.00     0.048 A 
ATOM     18  C   UNL     1      -3.124   3.493  -0.576  1.00  0.00     0.002 A 
ATOM     19  C   UNL     1      -4.952   2.127  -1.288  1.00  0.00     0.017 A 
ATOM     20  S   UNL     1      -5.234  -0.534  -0.945  1.00  0.00    -0.086 SA
ATOM     21  C   UNL     1      -4.428  -3.092  -0.665  1.00  0.00     0.019 A 
ATOM     22  C   UNL     1      -2.387  -3.861   0.306  1.00  0.00     0.043 A 
ATOM     23  C   UNL     1      -4.357   3.379  -1.195  1.00  0.00     0.001 A 
ATOM     24  C   UNL     1      -3.600  -4.146  -0.295  1.00  0.00     0.022 A 
ATOM     25  Cl  UNL     1      -1.339  -5.147   0.764  1.00  0.00    -0.084 Cl
ENDBRANCH  10  11
ENDBRANCH   1  10
TORSDOF 4
