REMARK SMILES CN1C(=O)C(O)N=C(c2ccccc2Cl)c2cc(Cl)ccc21
REMARK SMILES IDX 16 1 17 2 18 3 19 4 20 5 21 6 22 7 2 8 1 9 3 10 4 11 8 13
REMARK SMILES IDX 7 14 9 15 10 16 14 17 11 18 13 19 15 20 12 21 5 22 6 24
REMARK H PARENT 6 25
REMARK Flexibility Score: 80.00
ROOT
ATOM      1  C   UNL     1       0.429   0.587   0.488  1.00  0.00     0.026 A 
ATOM      2  C   UNL     1      -0.065   1.818   0.958  1.00  0.00     0.033 A 
ATOM      3  C   UNL     1       0.739   2.952   0.926  1.00  0.00     0.041 A 
ATOM      4  Cl  UNL     1       0.125   4.454   1.492  1.00  0.00    -0.084 Cl
ATOM      5  C   UNL     1       2.033   2.876   0.429  1.00  0.00     0.023 A 
ATOM      6  C   UNL     1       2.533   1.650  -0.024  1.00  0.00     0.028 A 
ATOM      7  C   UNL     1       1.755   0.478   0.017  1.00  0.00     0.053 A 
ENDROOT
BRANCH   7   8
ATOM      8  N   UNL     1       2.328  -0.753  -0.436  1.00  0.00    -0.311 N 
ATOM      9  C   UNL     1       3.372  -0.717  -1.452  1.00  0.00     0.153 C 
BRANCH   8  10
ATOM     10  C   UNL     1       2.021  -2.005   0.111  1.00  0.00     0.278 CG0
ATOM     11  O   UNL     1       2.509  -3.055  -0.323  1.00  0.00    -0.269 OA
ATOM     12  G   UNL     1       1.068  -2.024   1.339  1.00  0.00     0.000 G0
ENDBRANCH   8  10
ENDBRANCH   7   8
BRANCH   1  13
ATOM     13  C   UNL     1      -0.533  -0.553   0.440  1.00  0.00     0.079 C 
ATOM     14  N   UNL     1      -0.273  -1.751   0.843  1.00  0.00    -0.243 NA
BRANCH  13  15
ATOM     15  C   UNL     1      -1.915  -0.304  -0.069  1.00  0.00     0.019 A 
ATOM     16  C   UNL     1      -2.977  -0.699   0.758  1.00  0.00     0.012 A 
ATOM     17  C   UNL     1      -2.184   0.278  -1.315  1.00  0.00     0.050 A 
ATOM     18  C   UNL     1      -4.297  -0.481   0.361  1.00  0.00     0.001 A 
ATOM     19  C   UNL     1      -3.510   0.493  -1.706  1.00  0.00     0.021 A 
ATOM     20  Cl  UNL     1      -0.947   0.707  -2.442  1.00  0.00    -0.084 Cl
ATOM     21  C   UNL     1      -4.563   0.120  -0.867  1.00  0.00     0.002 A 
ENDBRANCH  13  15
BRANCH  14  22
ATOM     22  C   UNL     1       1.068  -2.024   1.339  1.00  0.00     0.323 CG0
ATOM     23  G   UNL     1       2.021  -2.005   0.111  1.00  0.00     0.000 G0
BRANCH  22  24
ATOM     24  O   UNL     1       1.146  -3.276   2.004  1.00  0.00    -0.364 OA
ATOM     25  H   UNL     1       0.945  -3.921   1.302  1.00  0.00     0.213 HD
ENDBRANCH  22  24
ENDBRANCH  14  22
ENDBRANCH   1  13
TORSDOF 2
