REMARK SMILES CN1CCN(CC/C=C2/c3ccccc3Sc3ccc(S(=O)(=O)N(C)C)cc32)CC1
REMARK SMILES IDX 8 1 9 2 10 3 11 4 12 5 13 6 14 7 15 8 16 9 17 10 18 11 19 12
REMARK SMILES IDX 20 13 27 14 28 15 7 16 6 17 5 18 1 19 2 20 3 21 30 22 4 23
REMARK SMILES IDX 29 24 21 25 22 26 23 27 24 28 25 29 26 30
REMARK H PARENT
REMARK Flexibility Score: inf
ROOT
ATOM      1  C   UNL     1       0.376   1.414  -0.194  1.00  0.00    -0.016 C 
ATOM      2  C   UNL     1      -0.741   2.179  -0.223  1.00  0.00    -0.013 C 
ATOM      3  C   UNL     1      -0.586   3.617  -0.584  1.00  0.00    -0.004 A 
ATOM      4  C   UNL     1       0.412   4.426  -0.016  1.00  0.00     0.010 A 
ATOM      5  C   UNL     1       0.524   5.772  -0.371  1.00  0.00     0.001 A 
ATOM      6  C   UNL     1      -0.363   6.328  -1.289  1.00  0.00     0.001 A 
ATOM      7  C   UNL     1      -1.371   5.541  -1.848  1.00  0.00     0.016 A 
ATOM      8  C   UNL     1      -1.497   4.192  -1.492  1.00  0.00     0.020 A 
ATOM      9  S   UNL     1      -2.832   3.245  -2.226  1.00  0.00    -0.089 SA
ATOM     10  C   UNL     1      -3.129   2.034  -0.937  1.00  0.00     0.020 A 
ATOM     11  C   UNL     1      -4.428   1.523  -0.799  1.00  0.00     0.017 A 
ATOM     12  C   UNL     1      -4.727   0.616   0.218  1.00  0.00     0.023 A 
ATOM     13  C   UNL     1      -3.721   0.230   1.103  1.00  0.00     0.083 A 
ATOM     14  C   UNL     1      -2.423   0.735   0.982  1.00  0.00     0.031 A 
ATOM     15  C   UNL     1      -2.105   1.611  -0.065  1.00  0.00    -0.003 A 
ENDROOT
BRANCH   1  16
ATOM     16  C   UNL     1       0.496  -0.084  -0.044  1.00  0.00     0.043 C 
BRANCH  16  17
ATOM     17  C   UNL     1       1.579  -0.699  -0.959  1.00  0.00     0.088 C 
BRANCH  17  18
ATOM     18  N   UNL     1       2.948  -0.224  -0.685  1.00  0.00    -0.300 NA
ATOM     19  C   UNL     1       5.106  -3.995  -0.620  1.00  0.00     0.105 C 
ATOM     20  N   UNL     1       4.815  -2.565  -0.565  1.00  0.00    -0.304 NA
ATOM     21  C   UNL     1       4.255  -2.086  -1.840  1.00  0.00     0.099 C 
ATOM     22  C   UNL     1       3.901  -2.249   0.548  1.00  0.00     0.099 C 
ATOM     23  C   UNL     1       3.871  -0.587  -1.783  1.00  0.00     0.100 C 
ATOM     24  C   UNL     1       3.506  -0.752   0.579  1.00  0.00     0.100 C 
ENDBRANCH  17  18
ENDBRANCH  16  17
ENDBRANCH   1  16
BRANCH  13  25
ATOM     25  S   UNL     1      -4.074  -0.904   2.421  1.00  0.00     0.242 S 
ATOM     26  O   UNL     1      -5.468  -1.289   2.340  1.00  0.00    -0.207 OA
ATOM     27  O   UNL     1      -3.521  -0.336   3.633  1.00  0.00    -0.207 OA
BRANCH  25  28
ATOM     28  N   UNL     1      -3.138  -2.276   1.994  1.00  0.00    -0.204 NA
ATOM     29  C   UNL     1      -3.565  -2.959   0.751  1.00  0.00     0.124 C 
ATOM     30  C   UNL     1      -2.992  -3.235   3.113  1.00  0.00     0.124 C 
ENDBRANCH  25  28
ENDBRANCH  13  25
TORSDOF 5
