REMARK SMILES CNC(=C[N+](=O)[O-])NCCSCc1ccc(CN(C)C)o1
REMARK SMILES IDX 10 1 9 2 8 3 3 5 4 6 2 7 1 8 5 10 6 11 7 12 11 13 12 14
REMARK SMILES IDX 13 15 14 16 21 17 15 18 16 19 17 20 18 21 19 22 20 23
REMARK H PARENT 8 4 2 9
REMARK Flexibility Score: inf
ROOT
ATOM      1  C   UNL     1      -1.516  -1.445   0.218  1.00  0.00     0.091 C 
ENDROOT
BRANCH   1   2
ATOM      2  C   UNL     1      -2.567  -1.006  -0.807  1.00  0.00     0.125 C 
BRANCH   2   3
ATOM      3  N   UNL     1      -3.354   0.127  -0.314  1.00  0.00    -0.366 N 
ATOM      4  H   UNL     1      -2.799   0.993  -0.321  1.00  0.00     0.162 HD
BRANCH   3   5
ATOM      5  C   UNL     1      -4.226   0.084   0.764  1.00  0.00     0.171 C 
ATOM      6  C   UNL     1      -4.386   1.088   1.654  1.00  0.00     0.424 C 
BRANCH   5   7
ATOM      7  N   UNL     1      -4.977  -1.078   0.874  1.00  0.00    -0.370 N 
ATOM      8  C   UNL     1      -6.155  -1.281   1.694  1.00  0.00     0.141 C 
ATOM      9  H   UNL     1      -5.053  -1.523  -0.038  1.00  0.00     0.161 HD
ENDBRANCH   5   7
BRANCH   6  10
ATOM     10  N   UNL     1      -3.641   2.322   1.605  1.00  0.00     0.058 N 
ATOM     11  O   UNL     1      -3.958   3.170   2.451  1.00  0.00    -0.259 OA
ATOM     12  O   UNL     1      -2.746   2.470   0.760  1.00  0.00    -0.259 OA
ENDBRANCH   6  10
ENDBRANCH   3   5
ENDBRANCH   2   3
ENDBRANCH   1   2
BRANCH   1  13
ATOM     13  S   UNL     1      -0.407  -2.762  -0.400  1.00  0.00    -0.152 SA
BRANCH  13  14
ATOM     14  C   UNL     1       0.508  -1.873  -1.705  1.00  0.00     0.144 C 
BRANCH  14  15
ATOM     15  C   UNL     1       1.186  -0.645  -1.224  1.00  0.00     0.114 A 
ATOM     16  C   UNL     1       0.952   0.701  -1.416  1.00  0.00     0.047 A 
ATOM     17  O   UNL     1       2.289  -0.819  -0.439  1.00  0.00    -0.464 OA
ATOM     18  C   UNL     1       1.958   1.389  -0.698  1.00  0.00     0.047 A 
ATOM     19  C   UNL     1       2.754   0.423  -0.117  1.00  0.00     0.118 A 
BRANCH  19  20
ATOM     20  C   UNL     1       3.962   0.482   0.756  1.00  0.00     0.159 C 
BRANCH  20  21
ATOM     21  N   UNL     1       5.118   1.102   0.080  1.00  0.00    -0.302 NA
ATOM     22  C   UNL     1       6.173   1.380   1.055  1.00  0.00     0.105 C 
ATOM     23  C   UNL     1       5.638   0.230  -0.977  1.00  0.00     0.105 C 
ENDBRANCH  20  21
ENDBRANCH  19  20
ENDBRANCH  14  15
ENDBRANCH  13  14
ENDBRANCH   1  13
TORSDOF 10
