REMARK SMILES NS(=O)(=O)c1cc2c(cc1Cl)NC(CC1CCCC1)NS2(=O)=O
REMARK SMILES IDX 5 1 6 2 7 3 8 4 9 5 10 6 11 7 12 8 13 9 20 10 21 11 22 12
REMARK SMILES IDX 23 13 2 16 3 17 4 18 1 19 14 22 15 23 16 24 19 25 17 26
REMARK SMILES IDX 18 27
REMARK H PARENT 12 14 20 15 1 20 1 21
REMARK Flexibility Score: inf
ROOT
ATOM      1  C   UNL     1       4.007  -0.680  -0.366  1.00  0.00     0.102 A 
ATOM      2  C   UNL     1       3.113   0.331  -0.005  1.00  0.00     0.047 A 
ATOM      3  C   UNL     1       1.848  -0.014   0.490  1.00  0.00     0.107 A 
ATOM      4  C   UNL     1       1.433  -1.335   0.625  1.00  0.00     0.057 A 
ATOM      5  C   UNL     1       2.364  -2.331   0.293  1.00  0.00     0.049 A 
ATOM      6  C   UNL     1       3.637  -2.016  -0.212  1.00  0.00     0.063 A 
ATOM      7  Cl  UNL     1       4.670  -3.344  -0.601  1.00  0.00    -0.083 Cl
ATOM      8  N   UNL     1       0.222  -1.708   1.199  1.00  0.00    -0.368 N 
ATOM      9  C   UNL     1      -0.894  -0.783   1.253  1.00  0.00     0.162 C 
ATOM     10  N   UNL     1      -0.453   0.479   1.789  1.00  0.00    -0.190 NA
ATOM     11  S   UNL     1       0.762   1.276   0.975  1.00  0.00     0.244 S 
ATOM     12  O   UNL     1       1.448   2.076   1.967  1.00  0.00    -0.207 OA
ATOM     13  O   UNL     1       0.228   1.860  -0.234  1.00  0.00    -0.207 OA
ATOM     14  H   UNL     1      -0.069  -2.652   0.951  1.00  0.00     0.162 HD
ATOM     15  H   UNL     1      -0.256   0.461   2.788  1.00  0.00     0.143 HD
ENDROOT
BRANCH   1  16
ATOM     16  S   UNL     1       5.601  -0.277  -0.999  1.00  0.00     0.239 S 
ATOM     17  O   UNL     1       6.594  -0.636  -0.015  1.00  0.00    -0.207 OA
ATOM     18  O   UNL     1       5.663  -0.680  -2.384  1.00  0.00    -0.207 OA
BRANCH  16  19
ATOM     19  N   UNL     1       5.632   1.406  -1.044  1.00  0.00    -0.225 NA
ATOM     20  H   UNL     1       6.370   1.745  -0.423  1.00  0.00     0.137 HD
ATOM     21  H   UNL     1       5.749   1.714  -2.012  1.00  0.00     0.137 HD
ENDBRANCH  16  19
ENDBRANCH   1  16
BRANCH   9  22
ATOM     22  C   UNL     1      -1.643  -0.709  -0.083  1.00  0.00     0.045 C 
BRANCH  22  23
ATOM     23  C   UNL     1      -3.066  -0.147   0.034  1.00  0.00    -0.008 C 
ATOM     24  C   UNL     1      -3.167   1.333   0.391  1.00  0.00     0.004 C 
ATOM     25  C   UNL     1      -3.819  -0.201  -1.296  1.00  0.00     0.004 C 
ATOM     26  C   UNL     1      -4.593   1.711   0.005  1.00  0.00     0.000 C 
ATOM     27  C   UNL     1      -5.003   0.739  -1.100  1.00  0.00     0.000 C 
ENDBRANCH  22  23
ENDBRANCH   9  22
TORSDOF 4
