REMARK SMILES O=c1[nH]c2ccccc2n1CCCN1CCC(n2c(=O)[nH]c3cc(Cl)ccc32)CC1
REMARK SMILES IDX 12 1 11 2 10 3 1 4 2 5 3 6 4 7 9 9 5 10 8 11 6 12 7 13 13 14
REMARK SMILES IDX 14 15 15 16 30 17 16 18 29 19 17 20 18 21 19 22 28 23 20 24
REMARK SMILES IDX 21 25 22 26 27 27 23 29 26 30 24 31 25 32
REMARK H PARENT 3 8 21 28
REMARK Flexibility Score: inf
ROOT
ATOM      1  C   UNL     1      -2.219   0.217   0.922  1.00  0.00     0.038 C 
ENDROOT
BRANCH   1   2
ATOM      2  C   UNL     1      -3.427  -0.593   1.394  1.00  0.00     0.129 C 
BRANCH   2   3
ATOM      3  N   UNL     1      -4.672   0.067   1.092  1.00  0.00    -0.292 N 
ATOM      4  O   UNL     1      -5.038   1.277   3.089  1.00  0.00    -0.248 OA
ATOM      5  C   UNL     1      -5.345   0.958   1.953  1.00  0.00     0.326 C 
ATOM      6  N   UNL     1      -6.462   1.428   1.244  1.00  0.00    -0.306 N 
ATOM      7  C   UNL     1      -6.462   0.864  -0.027  1.00  0.00     0.066 A 
ATOM      8  H   UNL     1      -7.121   2.089   1.619  1.00  0.00     0.171 HD
ATOM      9  C   UNL     1      -5.352   0.024  -0.133  1.00  0.00     0.069 A 
ATOM     10  C   UNL     1      -7.349   1.053  -1.060  1.00  0.00     0.028 A 
ATOM     11  C   UNL     1      -5.082  -0.667  -1.293  1.00  0.00     0.028 A 
ATOM     12  C   UNL     1      -7.092   0.357  -2.246  1.00  0.00     0.002 A 
ATOM     13  C   UNL     1      -5.970  -0.493  -2.361  1.00  0.00     0.002 A 
ENDBRANCH   2   3
ENDBRANCH   1   2
BRANCH   1  14
ATOM     14  C   UNL     1      -0.913  -0.509   1.267  1.00  0.00     0.086 C 
BRANCH  14  15
ATOM     15  N   UNL     1       0.286   0.256   0.891  1.00  0.00    -0.303 NA
ATOM     16  C   UNL     1       0.367   0.519  -0.553  1.00  0.00     0.086 C 
ATOM     17  C   UNL     1       1.510  -0.301   1.475  1.00  0.00     0.086 C 
ATOM     18  C   UNL     1       1.799   0.588  -1.081  1.00  0.00     0.041 C 
ATOM     19  C   UNL     1       2.248  -1.299   0.586  1.00  0.00     0.041 C 
ATOM     20  C   UNL     1       2.484  -0.759  -0.834  1.00  0.00     0.095 C 
BRANCH  20  21
ATOM     21  N   UNL     1       3.875  -0.782  -1.248  1.00  0.00    -0.289 N 
ATOM     22  C   UNL     1       4.366  -1.600  -2.294  1.00  0.00     0.326 C 
ATOM     23  C   UNL     1       4.950  -0.048  -0.717  1.00  0.00     0.069 A 
ATOM     24  O   UNL     1       3.743  -2.379  -2.995  1.00  0.00    -0.248 OA
ATOM     25  N   UNL     1       5.742  -1.350  -2.385  1.00  0.00    -0.305 N 
ATOM     26  C   UNL     1       6.098  -0.409  -1.428  1.00  0.00     0.068 A 
ATOM     27  C   UNL     1       5.015   0.877   0.303  1.00  0.00     0.030 A 
ATOM     28  H   UNL     1       6.344  -1.804  -3.053  1.00  0.00     0.171 HD
ATOM     29  C   UNL     1       7.342   0.120  -1.168  1.00  0.00     0.049 A 
ATOM     30  C   UNL     1       6.268   1.434   0.592  1.00  0.00     0.023 A 
ATOM     31  C   UNL     1       7.414   1.057  -0.137  1.00  0.00     0.043 A 
ATOM     32  Cl  UNL     1       8.933   1.768   0.253  1.00  0.00    -0.084 Cl
ENDBRANCH  20  21
ENDBRANCH  14  15
ENDBRANCH   1  14
TORSDOF 5
