REMARK SMILES CNC(=O)c1ccccc1Sc1ccc2c(/C=C/c3ccccn3)n[nH]c2c1
REMARK SMILES IDX 12 1 13 2 14 3 15 4 16 5 25 6 26 7 27 8 28 9 11 11 10 12
REMARK SMILES IDX 5 13 6 14 7 15 9 16 8 17 3 18 1 19 2 20 4 22 17 23 18 24
REMARK SMILES IDX 19 25 20 26 24 27 21 28 23 29 22 30
REMARK H PARENT 26 10 2 21
REMARK Flexibility Score: inf
ROOT
ATOM      1  C   UNL     1       1.493   0.420  -1.150  1.00  0.00     0.014 A 
ATOM      2  C   UNL     1       0.339   0.005  -1.820  1.00  0.00     0.016 A 
ATOM      3  C   UNL     1      -0.934   0.223  -1.272  1.00  0.00     0.014 A 
ATOM      4  C   UNL     1      -1.049   0.866  -0.022  1.00  0.00     0.027 A 
ATOM      5  C   UNL     1      -2.103   1.266   0.858  1.00  0.00     0.093 A 
ATOM      6  N   UNL     1      -1.625   1.923   1.925  1.00  0.00    -0.175 NA
ATOM      7  N   UNL     1      -0.294   1.897   1.760  1.00  0.00    -0.277 N 
ATOM      8  C   UNL     1       0.117   1.290   0.607  1.00  0.00     0.067 A 
ATOM      9  C   UNL     1       1.398   1.089   0.078  1.00  0.00     0.043 A 
ATOM     10  H   UNL     1       0.288   2.322   2.473  1.00  0.00     0.190 HD
ENDROOT
BRANCH   1  11
ATOM     11  S   UNL     1       3.091   0.117  -1.893  1.00  0.00    -0.089 SA
BRANCH  11  12
ATOM     12  C   UNL     1       3.729  -1.130  -0.774  1.00  0.00     0.025 A 
ATOM     13  C   UNL     1       4.533  -0.851   0.345  1.00  0.00     0.053 A 
ATOM     14  C   UNL     1       4.925  -1.890   1.205  1.00  0.00     0.015 A 
ATOM     15  C   UNL     1       4.553  -3.207   0.940  1.00  0.00     0.001 A 
ATOM     16  C   UNL     1       3.368  -2.464  -1.030  1.00  0.00     0.016 A 
ATOM     17  C   UNL     1       3.780  -3.494  -0.181  1.00  0.00     0.001 A 
BRANCH  13  18
ATOM     18  C   UNL     1       4.989   0.511   0.721  1.00  0.00     0.252 C 
ATOM     19  C   UNL     1       5.927   2.639  -0.065  1.00  0.00     0.143 C 
ATOM     20  N   UNL     1       5.546   1.268  -0.285  1.00  0.00    -0.355 N 
ATOM     21  H   UNL     1       5.452   0.943  -1.241  1.00  0.00     0.163 HD
ATOM     22  O   UNL     1       4.882   0.889   1.882  1.00  0.00    -0.269 OA
ENDBRANCH  13  18
ENDBRANCH  11  12
ENDBRANCH   1  11
BRANCH   5  23
ATOM     23  C   UNL     1      -3.513   1.068   0.690  1.00  0.00     0.033 C 
ATOM     24  C   UNL     1      -4.104   0.031   0.075  1.00  0.00     0.030 C 
BRANCH  24  25
ATOM     25  C   UNL     1      -5.550  -0.154  -0.083  1.00  0.00     0.063 A 
ATOM     26  C   UNL     1      -6.488   0.319   0.830  1.00  0.00     0.028 A 
ATOM     27  N   UNL     1      -5.899  -0.879  -1.172  1.00  0.00    -0.257 NA
ATOM     28  C   UNL     1      -7.839   0.063   0.601  1.00  0.00     0.004 A 
ATOM     29  C   UNL     1      -7.216  -1.110  -1.370  1.00  0.00     0.111 A 
ATOM     30  C   UNL     1      -8.213  -0.663  -0.522  1.00  0.00     0.020 A 
ENDBRANCH  24  25
ENDBRANCH   5  23
TORSDOF 5
