REMARK SMILES O=c1[nH]c(=O)n([C@H]2C[C@H](O)[C@@H](CO)O2)cc1F
REMARK SMILES IDX 7 1 8 2 9 3 11 4 14 5 6 6 1 7 2 8 3 9 16 10 4 11 15 13 17 14
REMARK SMILES IDX 5 15 10 16 12 18 13 19
REMARK H PARENT 3 12 10 17 13 20
REMARK Flexibility Score: inf
ROOT
ATOM      1  C   UNL     1       0.095   0.802  -0.246  1.00  0.00     0.226 C 
ATOM      2  C   UNL     1      -0.845   0.170  -1.260  1.00  0.00     0.090 C 
ATOM      3  C   UNL     1      -2.175   0.745  -0.836  1.00  0.00     0.150 C 
ATOM      4  C   UNL     1      -2.043   0.874   0.685  1.00  0.00     0.175 C 
ATOM      5  O   UNL     1      -0.630   0.799   1.000  1.00  0.00    -0.349 OA
ENDROOT
BRANCH   1   6
ATOM      6  N   UNL     1       1.368   0.098  -0.119  1.00  0.00    -0.271 N 
ATOM      7  O   UNL     1       4.903  -1.813   0.061  1.00  0.00    -0.266 OA
ATOM      8  C   UNL     1       3.825  -1.232   0.021  1.00  0.00     0.289 C 
ATOM      9  N   UNL     1       3.477  -0.401  -1.011  1.00  0.00    -0.271 N 
ATOM     10  C   UNL     1       2.802  -1.372   1.072  1.00  0.00     0.204 C 
ATOM     11  C   UNL     1       2.291   0.278  -1.147  1.00  0.00     0.330 C 
ATOM     12  H   UNL     1       4.152  -0.281  -1.750  1.00  0.00     0.175 HD
ATOM     13  C   UNL     1       1.646  -0.719   0.963  1.00  0.00     0.138 C 
ATOM     14  F   UNL     1       3.085  -2.167   2.119  1.00  0.00    -0.199 F 
ATOM     15  O   UNL     1       2.097   0.985  -2.132  1.00  0.00    -0.248 OA
ENDBRANCH   1   6
BRANCH   3  16
ATOM     16  O   UNL     1      -2.301   2.040  -1.431  1.00  0.00    -0.390 OA
ATOM     17  H   UNL     1      -3.212   2.350  -1.283  1.00  0.00     0.211 HD
ENDBRANCH   3  16
BRANCH   4  18
ATOM     18  C   UNL     1      -2.764  -0.236   1.452  1.00  0.00     0.190 C 
BRANCH  18  19
ATOM     19  O   UNL     1      -2.313  -1.525   1.048  1.00  0.00    -0.394 OA
ATOM     20  H   UNL     1      -1.380  -1.585   1.322  1.00  0.00     0.210 HD
ENDBRANCH  18  19
ENDBRANCH   4  18
TORSDOF 4
