REMARK SMILES O=c1[nH]c2cc(Cl)ccc2o1
REMARK SMILES IDX 1 1 2 2 3 3 4 4 5 5 6 6 7 7 8 8 9 9 10 10 11 11
REMARK H PARENT 3 12
REMARK Flexibility Score: inf
ROOT
ATOM      1  O   UNL     1       3.650   0.925  -0.021  1.00  0.00    -0.224 OA
ATOM      2  C   UNL     1       2.453   0.680  -0.001  1.00  0.00     0.417 C 
ATOM      3  N   UNL     1       1.900  -0.555  -0.247  1.00  0.00    -0.287 N 
ATOM      4  C   UNL     1       0.545  -0.436  -0.134  1.00  0.00     0.089 A 
ATOM      5  C   UNL     1      -0.452  -1.370  -0.283  1.00  0.00     0.050 A 
ATOM      6  C   UNL     1      -1.759  -0.913  -0.096  1.00  0.00     0.043 A 
ATOM      7  Cl  UNL     1      -3.071  -2.015  -0.264  1.00  0.00    -0.084 Cl
ATOM      8  C   UNL     1      -2.026   0.434   0.227  1.00  0.00     0.024 A 
ATOM      9  C   UNL     1      -0.981   1.354   0.370  1.00  0.00     0.051 A 
ATOM     10  C   UNL     1       0.301   0.885   0.182  1.00  0.00     0.156 A 
ATOM     11  O   UNL     1       1.463   1.632   0.278  1.00  0.00    -0.408 OA
ATOM     12  H   UNL     1       2.440  -1.375  -0.467  1.00  0.00     0.173 HD
ENDROOT
TORSDOF 0
