REMARK SMILES O=C(c1ccccc1)c1ccc2n1CCC2C(=O)O
REMARK SMILES IDX 9 1 10 2 11 3 12 4 13 5 14 6 15 7 16 8 2 9 1 10 3 11 4 12
REMARK SMILES IDX 8 13 5 14 7 15 6 16 17 17 18 18 19 19
REMARK H PARENT 19 20
REMARK Flexibility Score: inf
ROOT
ATOM      1  C   UNL     1      -0.052   0.044   0.190  1.00  0.00     0.090 A 
ATOM      2  C   UNL     1      -0.029  -0.220   1.561  1.00  0.00     0.032 A 
ATOM      3  C   UNL     1       1.295  -0.585   1.950  1.00  0.00     0.025 A 
ATOM      4  C   UNL     1       2.048  -0.513   0.811  1.00  0.00     0.032 A 
ATOM      5  N   UNL     1       1.234  -0.131  -0.213  1.00  0.00    -0.341 N 
ATOM      6  C   UNL     1       1.928  -0.023  -1.486  1.00  0.00     0.124 C 
ATOM      7  C   UNL     1       3.237  -0.782  -1.203  1.00  0.00     0.043 C 
ATOM      8  C   UNL     1       3.442  -0.708   0.337  1.00  0.00     0.147 C 
ENDROOT
BRANCH   1   9
ATOM      9  C   UNL     1      -1.128   0.463  -0.692  1.00  0.00     0.209 C 
ATOM     10  O   UNL     1      -0.925   0.940  -1.807  1.00  0.00    -0.287 OA
BRANCH   9  11
ATOM     11  C   UNL     1      -2.543   0.331  -0.255  1.00  0.00     0.024 A 
ATOM     12  C   UNL     1      -3.009  -0.829   0.377  1.00  0.00     0.012 A 
ATOM     13  C   UNL     1      -3.432   1.375  -0.537  1.00  0.00     0.012 A 
ATOM     14  C   UNL     1      -4.350  -0.924   0.756  1.00  0.00     0.001 A 
ATOM     15  C   UNL     1      -4.771   1.275  -0.157  1.00  0.00     0.001 A 
ATOM     16  C   UNL     1      -5.227   0.128   0.492  1.00  0.00     0.000 A 
ENDBRANCH   9  11
ENDBRANCH   1   9
BRANCH   8  17
ATOM     17  C   UNL     1       4.309   0.470   0.731  1.00  0.00     0.312 C 
ATOM     18  O   UNL     1       4.666   1.393   0.016  1.00  0.00    -0.252 OA
BRANCH  17  19
ATOM     19  O   UNL     1       4.698   0.426   2.024  1.00  0.00    -0.481 OA
ATOM     20  H   UNL     1       5.206   1.255   2.145  1.00  0.00     0.296 HD
ENDBRANCH  17  19
ENDBRANCH   8  17
TORSDOF 4
