REMARK SMILES CCc1cccc2c3c([nH]c12)C(CC)(CC(=O)O)OCC3
REMARK SMILES IDX 15 1 12 2 3 3 4 4 11 5 5 6 7 7 10 8 6 9 8 10 9 11 21 13
REMARK SMILES IDX 20 14 19 15 2 16 1 17 13 18 14 19 16 20 17 21 18 22
REMARK H PARENT 10 12 18 23
REMARK Flexibility Score: inf
ROOT
ATOM      1  C   UNL     1      -2.919   0.388   0.528  1.00  0.00     0.164 C 
ENDROOT
BRANCH   1   2
ATOM      2  C   UNL     1      -1.969  -0.817   0.416  1.00  0.00     0.118 C 
ATOM      3  C   UNL     1       2.570   1.107  -0.665  1.00  0.00    -0.024 A 
ATOM      4  C   UNL     1       3.447   0.951  -1.755  1.00  0.00     0.006 A 
ATOM      5  C   UNL     1       1.362   0.386  -0.729  1.00  0.00     0.049 A 
ATOM      6  C   UNL     1       3.130   0.138  -2.841  1.00  0.00     0.001 A 
ATOM      7  C   UNL     1       1.020  -0.436  -1.805  1.00  0.00     0.003 A 
ATOM      8  N   UNL     1       0.316   0.328   0.168  1.00  0.00    -0.356 N 
ATOM      9  C   UNL     1       1.920  -0.559  -2.880  1.00  0.00     0.010 A 
ATOM     10  C   UNL     1      -0.261  -0.977  -1.521  1.00  0.00    -0.014 A 
ATOM     11  C   UNL     1      -0.668  -0.511  -0.287  1.00  0.00     0.052 A 
ATOM     12  H   UNL     1       0.263   0.875   1.019  1.00  0.00     0.166 HD
ATOM     13  C   UNL     1      -1.133  -1.880  -2.310  1.00  0.00     0.066 C 
ATOM     14  C   UNL     1      -2.576  -1.666  -1.839  1.00  0.00     0.166 C 
ATOM     15  O   UNL     1      -2.680  -1.812  -0.413  1.00  0.00    -0.368 OA
BRANCH   3  16
ATOM     16  C   UNL     1       2.958   1.983   0.499  1.00  0.00     0.034 C 
ATOM     17  C   UNL     1       3.590   1.174   1.621  1.00  0.00     0.009 C 
ENDBRANCH   3  16
BRANCH   2  18
ATOM     18  C   UNL     1      -1.769  -1.616   1.729  1.00  0.00     0.039 C 
ATOM     19  C   UNL     1      -1.184  -0.920   2.944  1.00  0.00     0.007 C 
ENDBRANCH   2  18
ENDBRANCH   1   2
BRANCH   1  20
ATOM     20  C   UNL     1      -2.446   1.574   1.321  1.00  0.00     0.306 C 
ATOM     21  O   UNL     1      -1.327   1.814   1.743  1.00  0.00    -0.252 OA
BRANCH  20  22
ATOM     22  O   UNL     1      -3.445   2.461   1.516  1.00  0.00    -0.481 OA
ATOM     23  H   UNL     1      -3.031   3.207   2.001  1.00  0.00     0.296 HD
ENDBRANCH  20  22
ENDBRANCH   1  20
TORSDOF 5
