REMARK SMILES O=C(CCCN1CCC(n2c(=O)[nH]c3ccccc32)CC1)c1ccc(F)cc1
REMARK SMILES IDX 4 1 3 2 2 3 1 4 22 5 23 6 28 7 24 8 27 9 25 10 26 11 5 12
REMARK SMILES IDX 6 13 7 14 21 15 8 16 20 17 9 18 10 19 11 20 19 21 12 22
REMARK SMILES IDX 13 23 14 24 18 25 15 27 17 28 16 29
REMARK H PARENT 13 26
REMARK Flexibility Score: inf
ROOT
ATOM      1  C   UNL     1       2.365  -1.830  -0.869  1.00  0.00     0.024 C 
ENDROOT
BRANCH   1   2
ATOM      2  C   UNL     1       3.172  -0.954   0.092  1.00  0.00     0.082 C 
BRANCH   2   3
ATOM      3  C   UNL     1       4.576  -0.687  -0.424  1.00  0.00     0.162 C 
ATOM      4  O   UNL     1       4.993  -1.166  -1.477  1.00  0.00    -0.294 OA
BRANCH   3   5
ATOM      5  C   UNL     1       5.482   0.188   0.386  1.00  0.00     0.018 A 
ATOM      6  C   UNL     1       6.775   0.440  -0.100  1.00  0.00     0.015 A 
ATOM      7  C   UNL     1       5.083   0.757   1.604  1.00  0.00     0.015 A 
ATOM      8  C   UNL     1       7.657   1.249   0.620  1.00  0.00     0.040 A 
ATOM      9  C   UNL     1       5.969   1.567   2.322  1.00  0.00     0.040 A 
ATOM     10  C   UNL     1       7.245   1.805   1.824  1.00  0.00     0.123 A 
ATOM     11  F   UNL     1       8.089   2.581   2.516  1.00  0.00    -0.207 F 
ENDBRANCH   3   5
ENDBRANCH   2   3
ENDBRANCH   1   2
BRANCH   1  12
ATOM     12  C   UNL     1       0.976  -2.185  -0.320  1.00  0.00     0.085 C 
BRANCH  12  13
ATOM     13  N   UNL     1       0.136  -1.016  -0.019  1.00  0.00    -0.303 NA
ATOM     14  C   UNL     1      -1.055  -1.377   0.760  1.00  0.00     0.086 C 
ATOM     15  C   UNL     1      -0.153  -0.214  -1.220  1.00  0.00     0.086 C 
ATOM     16  C   UNL     1      -2.297  -1.694  -0.069  1.00  0.00     0.041 C 
ATOM     17  C   UNL     1      -1.518   0.471  -1.183  1.00  0.00     0.041 C 
ATOM     18  C   UNL     1      -2.609  -0.600  -1.102  1.00  0.00     0.095 C 
BRANCH  18  19
ATOM     19  N   UNL     1      -3.948  -0.053  -0.992  1.00  0.00    -0.289 N 
ATOM     20  C   UNL     1      -4.950  -0.230  -1.976  1.00  0.00     0.326 C 
ATOM     21  C   UNL     1      -4.494   0.699   0.064  1.00  0.00     0.069 A 
ATOM     22  O   UNL     1      -4.867  -0.830  -3.035  1.00  0.00    -0.248 OA
ATOM     23  N   UNL     1      -6.096   0.424  -1.505  1.00  0.00    -0.306 N 
ATOM     24  C   UNL     1      -5.821   0.986  -0.267  1.00  0.00     0.066 A 
ATOM     25  C   UNL     1      -3.956   1.140   1.254  1.00  0.00     0.028 A 
ATOM     26  H   UNL     1      -6.965   0.455  -2.011  1.00  0.00     0.171 HD
ATOM     27  C   UNL     1      -6.658   1.711   0.551  1.00  0.00     0.028 A 
ATOM     28  C   UNL     1      -4.786   1.880   2.106  1.00  0.00     0.002 A 
ATOM     29  C   UNL     1      -6.122   2.163   1.759  1.00  0.00     0.002 A 
ENDBRANCH  18  19
ENDBRANCH  12  13
ENDBRANCH   1  12
TORSDOF 6
