REMARK SMILES CCS(=O)(=O)N1CC(CC#N)(n2cc(-c3ncnc4[nH]ccc34)cn2)C1
REMARK SMILES IDX 6 1 7 2 8 3 26 4 3 5 4 6 5 7 2 8 1 9 9 10 10 11 11 12 12 13
REMARK SMILES IDX 13 14 25 15 14 16 24 17 15 18 16 19 23 20 17 21 19 22 22 23
REMARK SMILES IDX 18 24 20 25 21 26
REMARK H PARENT 20 27
REMARK Flexibility Score: inf
ROOT
ATOM      1  N   UNL     1      -2.885  -0.543  -0.117  1.00  0.00    -0.197 NA
ATOM      2  C   UNL     1      -2.371   0.785   0.358  1.00  0.00     0.135 C 
ATOM      3  C   UNL     1      -1.169   0.629  -0.616  1.00  0.00     0.103 C 
ATOM      4  C   UNL     1      -1.483  -0.886  -0.517  1.00  0.00     0.135 C 
ENDROOT
BRANCH   1   5
ATOM      5  S   UNL     1      -3.867  -1.588   0.779  1.00  0.00     0.213 S 
ATOM      6  O   UNL     1      -4.072  -2.773  -0.025  1.00  0.00    -0.212 OA
ATOM      7  O   UNL     1      -3.295  -1.676   2.105  1.00  0.00    -0.212 OA
BRANCH   5   8
ATOM      8  C   UNL     1      -5.400  -0.672   0.878  1.00  0.00     0.151 C 
ATOM      9  C   UNL     1      -5.997  -0.370  -0.481  1.00  0.00     0.022 C 
ENDBRANCH   5   8
ENDBRANCH   1   5
BRANCH   3  10
ATOM     10  C   UNL     1      -1.314   1.219  -2.012  1.00  0.00     0.153 C 
BRANCH  10  11
ATOM     11  C   UNL     1      -1.440   2.682  -1.992  1.00  0.00     0.065 C 
ATOM     12  N   UNL     1      -1.572   3.834  -1.999  1.00  0.00    -0.198 NA
ENDBRANCH  10  11
ENDBRANCH   3  10
BRANCH   3  13
ATOM     13  N   UNL     1       0.119   0.974   0.013  1.00  0.00    -0.262 N 
ATOM     14  C   UNL     1       1.310   0.359  -0.267  1.00  0.00     0.119 A 
ATOM     15  N   UNL     1       0.241   2.016   0.848  1.00  0.00    -0.180 NA
ATOM     16  C   UNL     1       2.267   1.018   0.480  1.00  0.00     0.039 A 
ATOM     17  C   UNL     1       1.548   2.052   1.120  1.00  0.00     0.145 A 
BRANCH  16  18
ATOM     18  C   UNL     1       3.685   0.752   0.496  1.00  0.00     0.086 A 
ATOM     19  N   UNL     1       4.504   1.816   0.676  1.00  0.00    -0.235 NA
ATOM     20  C   UNL     1       4.229  -0.531   0.358  1.00  0.00     0.045 A 
ATOM     21  C   UNL     1       5.832   1.594   0.682  1.00  0.00     0.224 A 
ATOM     22  C   UNL     1       5.616  -0.596   0.388  1.00  0.00     0.141 A 
ATOM     23  C   UNL     1       3.770  -1.872   0.211  1.00  0.00     0.032 A 
ATOM     24  N   UNL     1       6.473   0.424   0.538  1.00  0.00    -0.219 NA
ATOM     25  N   UNL     1       5.991  -1.904   0.240  1.00  0.00    -0.346 N 
ATOM     26  C   UNL     1       4.876  -2.694   0.135  1.00  0.00     0.085 A 
ATOM     27  H   UNL     1       6.952  -2.215   0.231  1.00  0.00     0.167 HD
ENDBRANCH  16  18
ENDBRANCH   3  13
TORSDOF 6
