REMARK SMILES CCCc1nc(C)c2c(=O)nc(-c3cc(S(=O)(=O)N4CCN(CC)CC4)ccc3OCC)[nH]n12
REMARK SMILES IDX 13 1 14 2 15 3 27 4 28 5 29 6 12 7 4 8 5 9 34 10 6 11 8 12
REMARK SMILES IDX 33 13 7 14 9 15 10 17 11 18 3 19 2 20 1 21 30 22 31 23 32 24
REMARK SMILES IDX 16 25 17 26 18 27 19 28 20 29 26 30 21 31 25 32 22 33 23 34
REMARK SMILES IDX 24 35
REMARK H PARENT 33 16
REMARK Flexibility Score: inf
ROOT
ATOM      1  C   UNL     1      -0.543  -0.670   0.520  1.00  0.00     0.062 A 
ATOM      2  C   UNL     1       0.729  -1.065   0.079  1.00  0.00     0.037 A 
ATOM      3  C   UNL     1       1.672  -1.524   0.999  1.00  0.00     0.083 A 
ATOM      4  C   UNL     1       1.362  -1.605   2.355  1.00  0.00     0.025 A 
ATOM      5  C   UNL     1       0.097  -1.208   2.799  1.00  0.00     0.048 A 
ATOM      6  C   UNL     1      -0.860  -0.723   1.898  1.00  0.00     0.130 A 
ENDROOT
BRANCH   1   7
ATOM      7  C   UNL     1      -1.525  -0.188  -0.523  1.00  0.00     0.160 C 
ATOM      8  C   UNL     1      -4.979   0.809  -0.933  1.00  0.00     0.129 A 
ATOM      9  N   UNL     1      -5.365   1.532  -1.969  1.00  0.00    -0.236 NA
ATOM     10  N   UNL     1      -3.651   0.473  -1.057  1.00  0.00    -0.233 N 
ATOM     11  C   UNL     1      -4.264   1.630  -2.794  1.00  0.00     0.071 A 
ATOM     12  C   UNL     1      -3.190   0.985  -2.223  1.00  0.00     0.153 A 
ATOM     13  N   UNL     1      -2.873  -0.285  -0.239  1.00  0.00    -0.275 N 
ATOM     14  C   UNL     1      -4.340   2.357  -4.082  1.00  0.00     0.069 C 
ATOM     15  C   UNL     1      -1.835   0.785  -2.624  1.00  0.00     0.299 C 
ATOM     16  H   UNL     1      -3.107  -0.225   0.750  1.00  0.00     0.190 HD
ATOM     17  O   UNL     1      -1.413   1.072  -3.738  1.00  0.00    -0.265 OA
ATOM     18  N   UNL     1      -1.024   0.281  -1.629  1.00  0.00    -0.188 NA
BRANCH   8  19
ATOM     19  C   UNL     1      -5.807   0.404   0.243  1.00  0.00     0.077 C 
BRANCH  19  20
ATOM     20  C   UNL     1      -7.315   0.505   0.000  1.00  0.00     0.005 C 
ATOM     21  C   UNL     1      -7.835  -0.557  -0.962  1.00  0.00     0.004 C 
ENDBRANCH  19  20
ENDBRANCH   8  19
ENDBRANCH   1   7
BRANCH   6  22
ATOM     22  O   UNL     1      -2.111  -0.295   2.269  1.00  0.00    -0.493 OA
BRANCH  22  23
ATOM     23  C   UNL     1      -2.390  -0.053   3.650  1.00  0.00     0.226 C 
ATOM     24  C   UNL     1      -3.022  -1.280   4.284  1.00  0.00     0.049 C 
ENDBRANCH  22  23
ENDBRANCH   6  22
BRANCH   3  25
ATOM     25  S   UNL     1       3.280  -2.002   0.418  1.00  0.00     0.243 S 
ATOM     26  O   UNL     1       3.081  -3.064  -0.542  1.00  0.00    -0.207 OA
ATOM     27  O   UNL     1       4.146  -2.172   1.567  1.00  0.00    -0.207 OA
BRANCH  25  28
ATOM     28  N   UNL     1       3.802  -0.610  -0.406  1.00  0.00    -0.195 NA
ATOM     29  C   UNL     1       4.046   0.604   0.439  1.00  0.00     0.118 C 
ATOM     30  C   UNL     1       4.907  -0.878  -1.383  1.00  0.00     0.118 C 
ATOM     31  C   UNL     1       5.549   0.894   0.595  1.00  0.00     0.101 C 
ATOM     32  C   UNL     1       5.618   0.420  -1.808  1.00  0.00     0.101 C 
ATOM     33  N   UNL     1       6.194   1.196  -0.694  1.00  0.00    -0.301 NA
BRANCH  33  34
ATOM     34  C   UNL     1       7.656   1.186  -0.634  1.00  0.00     0.081 C 
ATOM     35  C   UNL     1       8.322  -0.178  -0.470  1.00  0.00     0.021 C 
ENDBRANCH  33  34
ENDBRANCH  25  28
ENDBRANCH   3  25
TORSDOF 8
