REMARK SMILES Cc1c(OCC(F)(F)F)ccnc1C[S+]([O-])c1nc2ccccc2[nH]1
REMARK SMILES IDX 1 1 2 2 3 3 10 4 11 5 12 6 13 7 4 8 5 9 6 10 7 11 8 12 9 13
REMARK SMILES IDX 14 14 15 15 16 16 17 17 18 18 25 19 19 20 24 21 20 23 23 24
REMARK SMILES IDX 21 25 22 26
REMARK H PARENT 25 22
REMARK Flexibility Score: inf
ROOT
ATOM      1  C   UNL     1       1.765  -0.782   0.869  1.00  0.00     0.050 C 
ATOM      2  C   UNL     1       2.079   0.227  -0.204  1.00  0.00     0.017 A 
ATOM      3  C   UNL     1       3.412   0.424  -0.616  1.00  0.00     0.126 A 
ATOM      4  C   UNL     1       3.704   1.389  -1.575  1.00  0.00     0.067 A 
ATOM      5  C   UNL     1       2.664   2.143  -2.078  1.00  0.00     0.115 A 
ATOM      6  N   UNL     1       1.383   2.004  -1.690  1.00  0.00    -0.256 NA
ATOM      7  C   UNL     1       1.091   1.053  -0.766  1.00  0.00     0.097 A 
ENDROOT
BRANCH   3   8
ATOM      8  O   UNL     1       4.349  -0.374  -0.011  1.00  0.00    -0.484 OA
BRANCH   8   9
ATOM      9  C   UNL     1       5.715  -0.233  -0.415  1.00  0.00     0.344 C 
BRANCH   9  10
ATOM     10  C   UNL     1       6.598  -1.208   0.350  1.00  0.00     0.422 C 
ATOM     11  F   UNL     1       6.552  -0.989   1.682  1.00  0.00    -0.167 F 
ATOM     12  F   UNL     1       6.245  -2.492   0.122  1.00  0.00    -0.167 F 
ATOM     13  F   UNL     1       7.890  -1.070  -0.036  1.00  0.00    -0.167 F 
ENDBRANCH   9  10
ENDBRANCH   8   9
ENDBRANCH   3   8
BRANCH   7  14
ATOM     14  C   UNL     1      -0.366   0.959  -0.389  1.00  0.00     0.342 C 
BRANCH  14  15
ATOM     15  S   UNL     1      -1.212  -0.372  -1.295  1.00  0.00     0.030 S 
ATOM     16  O   UNL     1      -1.621   0.150  -2.821  1.00  0.00    -0.609 OA
BRANCH  15  17
ATOM     17  C   UNL     1      -2.753  -0.292  -0.367  1.00  0.00     0.322 A 
ATOM     18  N   UNL     1      -2.859  -0.395   0.940  1.00  0.00    -0.184 NA
ATOM     19  N   UNL     1      -3.968  -0.110  -0.966  1.00  0.00    -0.297 N 
ATOM     20  C   UNL     1      -4.205  -0.276   1.193  1.00  0.00     0.094 A 
ATOM     21  C   UNL     1      -4.924  -0.094   0.014  1.00  0.00     0.069 A 
ATOM     22  H   UNL     1      -4.103   0.007  -1.962  1.00  0.00     0.173 HD
ATOM     23  C   UNL     1      -4.893  -0.311   2.414  1.00  0.00     0.031 A 
ATOM     24  C   UNL     1      -6.311   0.060  -0.024  1.00  0.00     0.028 A 
ATOM     25  C   UNL     1      -6.286  -0.160   2.405  1.00  0.00     0.002 A 
ATOM     26  C   UNL     1      -6.979   0.022   1.206  1.00  0.00     0.002 A 
ENDBRANCH  15  17
ENDBRANCH  14  15
ENDBRANCH   7  14
TORSDOF 6
