REMARK SMILES COc1cc2nc(N(C)CCCNC(=O)C3CCCO3)nc(N)c2cc1OC
REMARK SMILES IDX 10 1 8 2 9 3 7 4 3 5 4 6 26 7 5 8 25 9 6 10 24 11 22 12
REMARK SMILES IDX 21 13 2 14 1 15 27 16 28 17 23 18 11 21 12 22 13 23 14 24
REMARK SMILES IDX 15 26 16 27 17 28 20 29 18 30 19 31
REMARK H PARENT 23 19 23 20 13 25
REMARK Flexibility Score: inf
ROOT
ATOM      1  C   UNL     1       1.167  -0.929  -1.396  1.00  0.00     0.121 C 
ENDROOT
BRANCH   1   2
ATOM      2  N   UNL     1       0.317  -0.889  -0.193  1.00  0.00    -0.344 N 
ATOM      3  C   UNL     1       0.235  -2.132   0.566  1.00  0.00     0.147 C 
BRANCH   2   4
ATOM      4  C   UNL     1      -0.923  -0.263  -0.379  1.00  0.00     0.227 A 
ATOM      5  C   UNL     1      -5.555  -0.062   0.652  1.00  0.00     0.162 A 
ATOM      6  C   UNL     1      -4.287  -0.641   0.770  1.00  0.00     0.079 A 
ATOM      7  C   UNL     1      -5.714   1.098  -0.124  1.00  0.00     0.161 A 
ATOM      8  C   UNL     1      -3.174  -0.120   0.121  1.00  0.00     0.082 A 
ATOM      9  C   UNL     1      -4.605   1.628  -0.788  1.00  0.00     0.064 A 
ATOM     10  N   UNL     1      -1.997  -0.730   0.281  1.00  0.00    -0.213 NA
ATOM     11  C   UNL     1      -3.331   1.011  -0.678  1.00  0.00     0.047 A 
ATOM     12  C   UNL     1      -2.163   1.433  -1.324  1.00  0.00     0.137 A 
ATOM     13  N   UNL     1      -0.990   0.804  -1.184  1.00  0.00    -0.195 NA
BRANCH   5  14
ATOM     14  O   UNL     1      -6.690  -0.546   1.261  1.00  0.00    -0.493 OA
ATOM     15  C   UNL     1      -6.589  -1.773   1.974  1.00  0.00     0.278 C 
ENDBRANCH   5  14
BRANCH   7  16
ATOM     16  O   UNL     1      -6.980   1.619  -0.184  1.00  0.00    -0.493 OA
ATOM     17  C   UNL     1      -7.154   2.881  -0.813  1.00  0.00     0.278 C 
ENDBRANCH   7  16
BRANCH  12  18
ATOM     18  N   UNL     1      -2.156   2.544  -2.186  1.00  0.00    -0.383 N 
ATOM     19  H   UNL     1      -2.789   2.381  -2.962  1.00  0.00     0.158 HD
ATOM     20  H   UNL     1      -2.453   3.377  -1.684  1.00  0.00     0.158 HD
ENDBRANCH  12  18
ENDBRANCH   2   4
ENDBRANCH   1   2
BRANCH   1  21
ATOM     21  C   UNL     1       1.950   0.357  -1.661  1.00  0.00     0.043 C 
BRANCH  21  22
ATOM     22  C   UNL     1       2.631   0.967  -0.442  1.00  0.00     0.117 C 
BRANCH  22  23
ATOM     23  N   UNL     1       3.509   0.061   0.268  1.00  0.00    -0.354 N 
ATOM     24  C   UNL     1       4.734  -0.334  -0.237  1.00  0.00     0.249 C 
ATOM     25  H   UNL     1       3.122  -0.412   1.068  1.00  0.00     0.163 HD
ATOM     26  O   UNL     1       5.164   0.050  -1.321  1.00  0.00    -0.272 OA
BRANCH  24  27
ATOM     27  C   UNL     1       5.519  -1.270   0.709  1.00  0.00     0.207 C 
ATOM     28  C   UNL     1       6.157  -0.465   1.837  1.00  0.00     0.044 C 
ATOM     29  O   UNL     1       6.598  -1.954   0.061  1.00  0.00    -0.368 OA
ATOM     30  C   UNL     1       7.480  -0.063   1.218  1.00  0.00     0.032 C 
ATOM     31  C   UNL     1       7.833  -1.285   0.393  1.00  0.00     0.161 C 
ENDBRANCH  24  27
ENDBRANCH  22  23
ENDBRANCH  21  22
ENDBRANCH   1  21
TORSDOF 9
