REMARK SMILES O=C1OCCN1/N=C/c1ccc([N+](=O)[O-])o1
REMARK SMILES IDX 9 1 10 2 11 3 12 4 16 5 8 6 7 7 6 8 1 9 2 10 3 11 4 12 5 13
REMARK SMILES IDX 13 14 14 15 15 16
REMARK H PARENT
REMARK Flexibility Score: inf
ROOT
ATOM      1  C   UNL     1       1.524  -0.130  -0.043  1.00  0.00     0.154 A 
ATOM      2  C   UNL     1       2.022  -1.316  -0.556  1.00  0.00     0.060 A 
ATOM      3  C   UNL     1       3.437  -1.229  -0.503  1.00  0.00     0.134 A 
ATOM      4  C   UNL     1       3.703   0.004   0.041  1.00  0.00     0.433 A 
ATOM      5  O   UNL     1       2.561   0.685   0.327  1.00  0.00    -0.400 OA
ENDROOT
BRANCH   1   6
ATOM      6  C   UNL     1       0.183   0.349   0.152  1.00  0.00     0.181 C 
ATOM      7  N   UNL     1      -0.825  -0.416  -0.133  1.00  0.00    -0.172 NA
BRANCH   7   8
ATOM      8  N   UNL     1      -2.084   0.101   0.034  1.00  0.00    -0.195 N 
ATOM      9  O   UNL     1      -1.764   2.385  -0.424  1.00  0.00    -0.222 OA
ATOM     10  C   UNL     1      -2.478   1.415  -0.220  1.00  0.00     0.430 C 
ATOM     11  O   UNL     1      -3.850   1.485  -0.237  1.00  0.00    -0.446 OA
ATOM     12  C   UNL     1      -4.357   0.199   0.135  1.00  0.00     0.259 C 
ATOM     13  C   UNL     1      -3.218  -0.753  -0.119  1.00  0.00     0.193 C 
ENDBRANCH   7   8
ENDBRANCH   1   6
BRANCH   4  14
ATOM     14  N   UNL     1       4.934   0.662   0.346  1.00  0.00     0.102 N 
ATOM     15  O   UNL     1       4.879   1.786   0.860  1.00  0.00    -0.256 OA
ATOM     16  O   UNL     1       5.970   0.041   0.069  1.00  0.00    -0.256 OA
ENDBRANCH   4  14
TORSDOF 3
