REMARK SMILES Cc1cc(-c2ccccc2)c(C(=O)C(=O)Nc2ccc(N3CCN(c4ncc(F)cn4)CC3)cc2)n1C
REMARK SMILES IDX 14 1 15 2 16 3 12 5 13 6 11 7 37 8 36 9 2 10 1 11 3 12 4 13
REMARK SMILES IDX 5 14 6 15 10 16 7 17 9 18 8 19 17 20 18 21 35 22 19 23 34 24
REMARK SMILES IDX 20 25 21 26 22 27 33 28 23 29 32 30 24 31 25 32 26 33 31 34
REMARK SMILES IDX 27 35 30 36 28 37 29 38
REMARK H PARENT 16 4
REMARK Flexibility Score: inf
ROOT
ATOM      1  C   UNL     1      -2.590   0.831   0.621  1.00  0.00     0.298 C 
ATOM      2  O   UNL     1      -2.378   0.646   1.809  1.00  0.00    -0.265 OA
ATOM      3  N   UNL     1      -1.686   0.767  -0.424  1.00  0.00    -0.319 N 
ATOM      4  H   UNL     1      -2.080   0.999  -1.335  1.00  0.00     0.170 HD
ENDROOT
BRANCH   1   5
ATOM      5  C   UNL     1      -4.000   1.208   0.117  1.00  0.00     0.267 C 
ATOM      6  O   UNL     1      -4.112   1.546  -1.062  1.00  0.00    -0.281 OA
BRANCH   5   7
ATOM      7  C   UNL     1      -5.093   1.087   1.060  1.00  0.00     0.103 A 
ATOM      8  C   UNL     1      -4.326   2.842   2.703  1.00  0.00     0.150 C 
ATOM      9  N   UNL     1      -5.217   1.794   2.245  1.00  0.00    -0.345 N 
ATOM     10  C   UNL     1      -6.335   1.372   2.933  1.00  0.00     0.015 A 
ATOM     11  C   UNL     1      -6.726   1.900   4.268  1.00  0.00     0.064 C 
ATOM     12  C   UNL     1      -6.962   0.420   2.156  1.00  0.00     0.032 A 
ATOM     13  C   UNL     1      -6.203   0.256   0.970  1.00  0.00     0.011 A 
BRANCH  13  14
ATOM     14  C   UNL     1      -6.445  -0.674  -0.118  1.00  0.00    -0.016 A 
ATOM     15  C   UNL     1      -6.409  -2.052   0.123  1.00  0.00     0.009 A 
ATOM     16  C   UNL     1      -6.728  -0.207  -1.406  1.00  0.00     0.009 A 
ATOM     17  C   UNL     1      -6.642  -2.953  -0.918  1.00  0.00     0.001 A 
ATOM     18  C   UNL     1      -6.961  -1.110  -2.445  1.00  0.00     0.001 A 
ATOM     19  C   UNL     1      -6.917  -2.482  -2.201  1.00  0.00     0.000 A 
ENDBRANCH  13  14
ENDBRANCH   5   7
ENDBRANCH   1   5
BRANCH   3  20
ATOM     20  C   UNL     1      -0.323   0.436  -0.370  1.00  0.00     0.041 A 
ATOM     21  C   UNL     1       0.340   0.053   0.789  1.00  0.00     0.028 A 
ATOM     22  C   UNL     1       0.401   0.492  -1.561  1.00  0.00     0.028 A 
ATOM     23  C   UNL     1       1.706  -0.264   0.754  1.00  0.00     0.028 A 
ATOM     24  C   UNL     1       1.769   0.176  -1.582  1.00  0.00     0.028 A 
ATOM     25  C   UNL     1       2.462  -0.206  -0.426  1.00  0.00     0.037 A 
BRANCH  25  26
ATOM     26  N   UNL     1       3.812  -0.511  -0.445  1.00  0.00    -0.368 N 
ATOM     27  C   UNL     1       4.523  -0.825  -1.699  1.00  0.00     0.138 C 
ATOM     28  C   UNL     1       4.636  -0.435   0.778  1.00  0.00     0.138 C 
ATOM     29  C   UNL     1       5.810  -1.643  -1.444  1.00  0.00     0.141 C 
ATOM     30  C   UNL     1       6.098  -0.048   0.463  1.00  0.00     0.141 C 
ATOM     31  N   UNL     1       6.710  -0.966  -0.503  1.00  0.00    -0.337 N 
BRANCH  31  32
ATOM     32  C   UNL     1       8.000  -0.679  -0.900  1.00  0.00     0.225 A 
ATOM     33  N   UNL     1       8.525  -1.334  -1.952  1.00  0.00    -0.218 NA
ATOM     34  N   UNL     1       8.703   0.234  -0.199  1.00  0.00    -0.218 NA
ATOM     35  C   UNL     1       9.801  -1.055  -2.299  1.00  0.00     0.156 A 
ATOM     36  C   UNL     1       9.974   0.484  -0.581  1.00  0.00     0.156 A 
ATOM     37  C   UNL     1      10.575  -0.142  -1.637  1.00  0.00     0.159 A 
ATOM     38  F   UNL     1      11.833   0.122  -2.001  1.00  0.00    -0.204 F 
ENDBRANCH  31  32
ENDBRANCH  25  26
ENDBRANCH   3  20
TORSDOF 6
