REMARK SMILES COc1cccc(OC)c1C(=O)N[C@@H]1C(=O)N2[C@@H]1SC(C)(C)[C@@H]2C(=O)O
REMARK SMILES IDX 14 1 15 2 16 3 17 4 18 5 19 6 20 7 21 8 22 9 23 10 13 11
REMARK SMILES IDX 11 12 12 13 10 15 3 16 4 17 5 18 7 19 6 20 2 21 1 22 8 23
REMARK SMILES IDX 9 24 24 25 25 26 26 27
REMARK H PARENT 13 14 26 28
REMARK Flexibility Score: inf
ROOT
ATOM      1  C   UNL     1      -0.833  -1.340   1.378  1.00  0.00     0.205 C 
ATOM      2  C   UNL     1      -2.244  -1.599   0.801  1.00  0.00     0.250 C 
ATOM      3  O   UNL     1      -2.756  -2.352   0.006  1.00  0.00    -0.272 OA
ATOM      4  N   UNL     1      -2.752  -0.509   1.452  1.00  0.00    -0.311 N 
ATOM      5  C   UNL     1      -1.420   0.047   1.757  1.00  0.00     0.176 C 
ATOM      6  S   UNL     1      -1.197   1.431   0.559  1.00  0.00    -0.125 SA
ATOM      7  C   UNL     1      -2.930   1.350  -0.097  1.00  0.00     0.044 C 
ATOM      8  C   UNL     1      -2.856   0.809  -1.535  1.00  0.00     0.026 C 
ATOM      9  C   UNL     1      -3.487   2.779  -0.146  1.00  0.00     0.026 C 
ATOM     10  C   UNL     1      -3.712   0.380   0.816  1.00  0.00     0.211 C 
ENDROOT
BRANCH   1  11
ATOM     11  N   UNL     1       0.301  -1.378   0.424  1.00  0.00    -0.337 N 
ATOM     12  C   UNL     1       1.568  -1.001   0.820  1.00  0.00     0.259 C 
ATOM     13  O   UNL     1       1.790  -0.601   1.959  1.00  0.00    -0.269 OA
ATOM     14  H   UNL     1       0.146  -1.575  -0.562  1.00  0.00     0.164 HD
BRANCH  12  15
ATOM     15  C   UNL     1       2.648  -1.104  -0.204  1.00  0.00     0.123 A 
ATOM     16  C   UNL     1       2.415  -0.807  -1.559  1.00  0.00     0.135 A 
ATOM     17  C   UNL     1       3.441  -0.947  -2.505  1.00  0.00     0.047 A 
ATOM     18  C   UNL     1       4.715  -1.345  -2.105  1.00  0.00     0.008 A 
ATOM     19  C   UNL     1       3.943  -1.487   0.184  1.00  0.00     0.135 A 
ATOM     20  C   UNL     1       4.965  -1.618  -0.763  1.00  0.00     0.047 A 
BRANCH  16  21
ATOM     21  O   UNL     1       1.158  -0.447  -1.981  1.00  0.00    -0.496 OA
ATOM     22  C   UNL     1       1.151   0.876  -2.529  1.00  0.00     0.278 C 
ENDBRANCH  16  21
BRANCH  19  23
ATOM     23  O   UNL     1       4.226  -1.864   1.472  1.00  0.00    -0.496 OA
ATOM     24  C   UNL     1       4.864  -0.797   2.176  1.00  0.00     0.278 C 
ENDBRANCH  19  23
ENDBRANCH  12  15
ENDBRANCH   1  11
BRANCH  10  25
ATOM     25  C   UNL     1      -4.500   1.072   1.926  1.00  0.00     0.327 C 
ATOM     26  O   UNL     1      -4.102   1.387   3.036  1.00  0.00    -0.250 OA
BRANCH  25  27
ATOM     27  O   UNL     1      -5.767   1.366   1.557  1.00  0.00    -0.480 OA
ATOM     28  H   UNL     1      -6.151   1.789   2.355  1.00  0.00     0.296 HD
ENDBRANCH  25  27
ENDBRANCH  10  25
TORSDOF 6
