REMARK SMILES CC(=O)Nc1nnc(S(N)(=O)=O)s1
REMARK SMILES IDX 5 1 6 2 7 3 8 4 13 5 4 6 1 7 2 8 3 9 9 11 11 12 12 13 10 14
REMARK H PARENT 4 10 10 15 10 16
REMARK Flexibility Score: inf
ROOT
ATOM      1  C   UNL     1      -0.510  -0.413   0.358  1.00  0.00     0.213 A 
ATOM      2  N   UNL     1       0.237  -1.418   0.769  1.00  0.00    -0.119 NA
ATOM      3  N   UNL     1       1.587  -1.154   0.634  1.00  0.00    -0.123 NA
ATOM      4  C   UNL     1       1.778   0.046   0.122  1.00  0.00     0.249 A 
ATOM      5  S   UNL     1       0.367   0.928  -0.227  1.00  0.00    -0.062 S 
ENDROOT
BRANCH   1   6
ATOM      6  N   UNL     1      -1.881  -0.466   0.403  1.00  0.00    -0.301 N 
ATOM      7  C   UNL     1      -4.199   0.120   0.208  1.00  0.00     0.114 C 
ATOM      8  C   UNL     1      -2.757   0.521   0.015  1.00  0.00     0.223 C 
ATOM      9  O   UNL     1      -2.475   1.631  -0.420  1.00  0.00    -0.275 OA
ATOM     10  H   UNL     1      -2.240  -1.335   0.775  1.00  0.00     0.172 HD
ENDBRANCH   1   6
BRANCH   4  11
ATOM     11  S   UNL     1       3.349   0.766  -0.211  1.00  0.00     0.267 S 
ATOM     12  O   UNL     1       3.433   0.892  -1.648  1.00  0.00    -0.205 OA
ATOM     13  O   UNL     1       3.474   1.887   0.692  1.00  0.00    -0.205 OA
BRANCH  11  14
ATOM     14  N   UNL     1       4.530  -0.355   0.246  1.00  0.00    -0.223 NA
ATOM     15  H   UNL     1       4.510  -0.527   1.251  1.00  0.00     0.137 HD
ATOM     16  H   UNL     1       4.474  -1.203  -0.318  1.00  0.00     0.137 HD
ENDBRANCH  11  14
ENDBRANCH   4  11
TORSDOF 3
