REMARK SMILES CCC1(c2ccccc2)C(=O)NC(=O)N(C)C1=O
REMARK SMILES IDX 3 1 10 2 11 3 12 4 13 5 14 6 15 7 16 8 17 9 18 10 2 12 1 13
REMARK SMILES IDX 4 14 5 15 9 16 6 17 8 18 7 19
REMARK H PARENT 12 11
REMARK Flexibility Score: inf
ROOT
ATOM      1  C   UNL     1      -0.274   0.548  -0.207  1.00  0.00     0.153 C 
ATOM      2  C   UNL     1      -0.767   1.302   1.030  1.00  0.00     0.248 C 
ATOM      3  O   UNL     1      -0.060   2.013   1.743  1.00  0.00    -0.273 OA
ATOM      4  N   UNL     1      -2.089   1.175   1.329  1.00  0.00    -0.276 N 
ATOM      5  C   UNL     1      -2.736  -0.014   1.216  1.00  0.00     0.330 C 
ATOM      6  O   UNL     1      -3.689  -0.251   1.954  1.00  0.00    -0.248 OA
ATOM      7  N   UNL     1      -2.261  -0.884   0.264  1.00  0.00    -0.266 N 
ATOM      8  C   UNL     1      -3.050  -2.070  -0.011  1.00  0.00     0.158 C 
ATOM      9  C   UNL     1      -1.291  -0.523  -0.655  1.00  0.00     0.250 C 
ATOM     10  O   UNL     1      -1.232  -1.048  -1.772  1.00  0.00    -0.273 OA
ATOM     11  H   UNL     1      -2.376   1.696   2.148  1.00  0.00     0.174 HD
ENDROOT
BRANCH   1  12
ATOM     12  C   UNL     1      -0.230   1.607  -1.357  1.00  0.00     0.028 C 
ATOM     13  C   UNL     1       0.787   2.733  -1.188  1.00  0.00     0.006 C 
ENDBRANCH   1  12
BRANCH   1  14
ATOM     14  C   UNL     1       1.066  -0.186   0.034  1.00  0.00    -0.023 A 
ATOM     15  C   UNL     1       1.904  -0.539  -1.042  1.00  0.00     0.005 A 
ATOM     16  C   UNL     1       1.453  -0.611   1.319  1.00  0.00     0.005 A 
ATOM     17  C   UNL     1       3.095  -1.240  -0.837  1.00  0.00     0.000 A 
ATOM     18  C   UNL     1       2.647  -1.310   1.523  1.00  0.00     0.000 A 
ATOM     19  C   UNL     1       3.470  -1.621   0.446  1.00  0.00     0.000 A 
ENDBRANCH   1  14
TORSDOF 2
