REMARK SMILES O=c1[nH]c(=O)n([C@H]2C[C@H](O)[C@@H](CO)O2)cc1C(F)(F)F
REMARK SMILES IDX 7 1 8 2 9 3 11 4 14 5 6 6 1 7 2 8 3 9 16 10 4 11 15 13 5 14
REMARK SMILES IDX 17 15 18 16 19 17 20 18 10 19 12 21 13 22
REMARK H PARENT 3 12 10 20 13 23
REMARK Flexibility Score: inf
ROOT
ATOM      1  C   UNL     1      -0.545   0.735  -0.877  1.00  0.00     0.226 C 
ATOM      2  C   UNL     1      -0.912  -0.476  -1.725  1.00  0.00     0.090 C 
ATOM      3  C   UNL     1      -2.409  -0.529  -1.546  1.00  0.00     0.150 C 
ATOM      4  C   UNL     1      -2.590  -0.090  -0.095  1.00  0.00     0.175 C 
ATOM      5  O   UNL     1      -1.442   0.728   0.252  1.00  0.00    -0.349 OA
ENDROOT
BRANCH   1   6
ATOM      6  N   UNL     1       0.848   0.718  -0.437  1.00  0.00    -0.273 N 
ATOM      7  O   UNL     1       4.721   0.631   0.586  1.00  0.00    -0.269 OA
ATOM      8  C   UNL     1       3.532   0.653   0.298  1.00  0.00     0.265 C 
ATOM      9  N   UNL     1       3.097   1.118  -0.912  1.00  0.00    -0.273 N 
ATOM     10  C   UNL     1       2.488   0.178   1.213  1.00  0.00     0.137 C 
ATOM     11  C   UNL     1       1.799   1.156  -1.351  1.00  0.00     0.330 C 
ATOM     12  H   UNL     1       3.800   1.435  -1.562  1.00  0.00     0.175 HD
ATOM     13  C   UNL     1       1.213   0.229   0.804  1.00  0.00     0.112 C 
ATOM     14  O   UNL     1       1.540   1.547  -2.486  1.00  0.00    -0.248 OA
BRANCH  10  15
ATOM     15  C   UNL     1       2.957  -0.325   2.523  1.00  0.00     0.423 C 
ATOM     16  F   UNL     1       3.604   0.620   3.249  1.00  0.00    -0.166 F 
ATOM     17  F   UNL     1       1.914  -0.741   3.297  1.00  0.00    -0.166 F 
ATOM     18  F   UNL     1       3.781  -1.396   2.408  1.00  0.00    -0.166 F 
ENDBRANCH  10  15
ENDBRANCH   1   6
BRANCH   3  19
ATOM     19  O   UNL     1      -2.992   0.421  -2.439  1.00  0.00    -0.390 OA
ATOM     20  H   UNL     1      -3.958   0.401  -2.319  1.00  0.00     0.211 HD
ENDBRANCH   3  19
BRANCH   4  21
ATOM     21  C   UNL     1      -2.615  -1.269   0.880  1.00  0.00     0.190 C 
BRANCH  21  22
ATOM     22  O   UNL     1      -2.809  -0.791   2.209  1.00  0.00    -0.394 OA
ATOM     23  H   UNL     1      -2.242  -0.002   2.306  1.00  0.00     0.210 HD
ENDBRANCH  21  22
ENDBRANCH   4  21
TORSDOF 5
