REMARK SMILES O=C1CCc2cc(OCCCCc3nnnn3C3CCCCC3)ccc2N1
REMARK SMILES IDX 10 1 9 2 8 3 7 4 1 5 2 6 3 7 27 8 4 9 26 10 5 12 25 13 6 14
REMARK SMILES IDX 24 15 11 16 12 17 13 18 14 19 17 20 15 21 16 22 18 23 19 24
REMARK SMILES IDX 23 25 20 26 22 27 21 28
REMARK H PARENT 27 11
REMARK Flexibility Score: inf
ROOT
ATOM      1  C   UNL     1       0.306  -0.575   1.117  1.00  0.00     0.042 C 
ENDROOT
BRANCH   1   2
ATOM      2  C   UNL     1       1.773  -0.652   0.693  1.00  0.00     0.229 C 
BRANCH   2   3
ATOM      3  O   UNL     1       2.163   0.613   0.157  1.00  0.00    -0.494 OA
BRANCH   3   4
ATOM      4  C   UNL     1       3.468   0.753  -0.228  1.00  0.00     0.119 A 
ATOM      5  O   UNL     1       9.549   1.037  -1.775  1.00  0.00    -0.275 OA
ATOM      6  C   UNL     1       8.439   0.758  -1.324  1.00  0.00     0.224 C 
ATOM      7  C   UNL     1       8.200  -0.455  -0.453  1.00  0.00     0.105 C 
ATOM      8  N   UNL     1       7.375   1.601  -1.501  1.00  0.00    -0.326 N 
ATOM      9  C   UNL     1       6.807  -1.034  -0.650  1.00  0.00     0.048 C 
ATOM     10  C   UNL     1       6.074   1.322  -1.071  1.00  0.00     0.044 A 
ATOM     11  H   UNL     1       7.579   2.474  -1.970  1.00  0.00     0.169 HD
ATOM     12  C   UNL     1       5.759   0.043  -0.599  1.00  0.00    -0.020 A 
ATOM     13  C   UNL     1       5.097   2.310  -1.140  1.00  0.00     0.030 A 
ATOM     14  C   UNL     1       4.448  -0.240  -0.186  1.00  0.00     0.052 A 
ATOM     15  C   UNL     1       3.799   2.024  -0.709  1.00  0.00     0.048 A 
ENDBRANCH   3   4
ENDBRANCH   2   3
ENDBRANCH   1   2
BRANCH   1  16
ATOM     16  C   UNL     1      -0.627  -0.314  -0.074  1.00  0.00     0.012 C 
BRANCH  16  17
ATOM     17  C   UNL     1      -2.102  -0.229   0.335  1.00  0.00     0.079 C 
BRANCH  17  18
ATOM     18  C   UNL     1      -2.725  -1.553   0.613  1.00  0.00     0.151 A 
ATOM     19  N   UNL     1      -2.102  -2.706   0.770  1.00  0.00    -0.114 NA
ATOM     20  N   UNL     1      -4.072  -1.791   0.749  1.00  0.00    -0.227 N 
ATOM     21  N   UNL     1      -3.068  -3.648   0.999  1.00  0.00    -0.024 NA
ATOM     22  N   UNL     1      -4.273  -3.102   0.981  1.00  0.00    -0.045 NA
BRANCH  20  23
ATOM     23  C   UNL     1      -5.225  -0.914   0.640  1.00  0.00     0.111 C 
ATOM     24  C   UNL     1      -5.563  -0.581  -0.826  1.00  0.00     0.027 C 
ATOM     25  C   UNL     1      -5.149   0.345   1.512  1.00  0.00     0.027 C 
ATOM     26  C   UNL     1      -6.335   0.733  -0.982  1.00  0.00     0.002 C 
ATOM     27  C   UNL     1      -6.487   1.089   1.529  1.00  0.00     0.002 C 
ATOM     28  C   UNL     1      -7.254   0.997   0.205  1.00  0.00     0.000 C 
ENDBRANCH  20  23
ENDBRANCH  17  18
ENDBRANCH  16  17
ENDBRANCH   1  16
TORSDOF 7
