REMARK SMILES CNS(=O)(=O)Nc1nccc(Cc2c(C)c3ccc(Oc4ncccn4)cc3oc2=O)c1F
REMARK SMILES IDX 7 1 32 2 33 3 11 4 10 5 9 6 8 7 6 8 3 10 4 11 5 12 2 13 1 14
REMARK SMILES IDX 12 16 13 17 14 18 30 19 15 20 16 21 29 22 31 23 28 24 17 25
REMARK SMILES IDX 27 26 18 27 19 28 20 29 21 30 22 31 26 32 23 33 25 34 24 35
REMARK H PARENT 6 9 2 15
REMARK Flexibility Score: inf
ROOT
ATOM      1  C   UNL     1       4.691   1.012   0.441  1.00  0.00     0.177 A 
ATOM      2  C   UNL     1       3.719   0.507  -0.421  1.00  0.00     0.170 A 
ATOM      3  F   UNL     1       3.799  -0.741  -0.902  1.00  0.00    -0.203 F 
ATOM      4  C   UNL     1       2.657   1.327  -0.809  1.00  0.00    -0.002 A 
ATOM      5  C   UNL     1       2.660   2.651  -0.360  1.00  0.00     0.027 A 
ATOM      6  C   UNL     1       3.698   3.081   0.457  1.00  0.00     0.114 A 
ATOM      7  N   UNL     1       4.719   2.293   0.861  1.00  0.00    -0.236 NA
ENDROOT
BRANCH   1   8
ATOM      8  N   UNL     1       5.851   0.323   0.877  1.00  0.00    -0.252 N 
ATOM      9  H   UNL     1       6.309   0.908   1.574  1.00  0.00     0.183 HD
BRANCH   8  10
ATOM     10  S   UNL     1       5.645  -1.206   1.510  1.00  0.00     0.300 S 
ATOM     11  O   UNL     1       6.793  -1.468   2.343  1.00  0.00    -0.189 OA
ATOM     12  O   UNL     1       4.295  -1.350   2.001  1.00  0.00    -0.189 OA
BRANCH  10  13
ATOM     13  N   UNL     1       5.782  -2.140   0.131  1.00  0.00    -0.201 NA
ATOM     14  C   UNL     1       7.056  -2.117  -0.585  1.00  0.00     0.122 C 
ATOM     15  H   UNL     1       4.951  -2.050  -0.454  1.00  0.00     0.142 HD
ENDBRANCH  10  13
ENDBRANCH   8  10
ENDBRANCH   1   8
BRANCH   4  16
ATOM     16  C   UNL     1       1.558   0.796  -1.701  1.00  0.00     0.082 C 
BRANCH  16  17
ATOM     17  C   UNL     1       0.189   0.791  -1.047  1.00  0.00     0.046 C 
ATOM     18  C   UNL     1      -0.269  -0.168  -0.208  1.00  0.00    -0.029 C 
ATOM     19  C   UNL     1      -0.666   1.946  -1.443  1.00  0.00     0.340 C 
ATOM     20  C   UNL     1       0.537  -1.372   0.219  1.00  0.00     0.046 C 
ATOM     21  C   UNL     1      -1.639  -0.053   0.335  1.00  0.00     0.021 A 
ATOM     22  O   UNL     1      -1.971   1.965  -0.991  1.00  0.00    -0.422 OA
ATOM     23  O   UNL     1      -0.237   2.853  -2.149  1.00  0.00    -0.246 OA
ATOM     24  C   UNL     1      -2.449   0.996  -0.098  1.00  0.00     0.142 A 
ATOM     25  C   UNL     1      -2.190  -0.950   1.265  1.00  0.00     0.016 A 
ATOM     26  C   UNL     1      -3.767   1.156   0.331  1.00  0.00     0.095 A 
ATOM     27  C   UNL     1      -3.509  -0.805   1.714  1.00  0.00     0.048 A 
ATOM     28  C   UNL     1      -4.298   0.232   1.223  1.00  0.00     0.134 A 
BRANCH  28  29
ATOM     29  O   UNL     1      -5.579   0.375   1.688  1.00  0.00    -0.424 OA
BRANCH  29  30
ATOM     30  C   UNL     1      -6.587  -0.013   0.814  1.00  0.00     0.321 A 
ATOM     31  N   UNL     1      -7.801   0.497   1.084  1.00  0.00    -0.203 NA
ATOM     32  N   UNL     1      -6.311  -0.875  -0.184  1.00  0.00    -0.203 NA
ATOM     33  C   UNL     1      -8.797   0.118   0.263  1.00  0.00     0.118 A 
ATOM     34  C   UNL     1      -7.346  -1.220  -0.969  1.00  0.00     0.118 A 
ATOM     35  C   UNL     1      -8.625  -0.747  -0.790  1.00  0.00     0.040 A 
ENDBRANCH  29  30
ENDBRANCH  28  29
ENDBRANCH  16  17
ENDBRANCH   4  16
TORSDOF 7
