REMARK SMILES NS(=O)(=O)c1cc2c(cc1Cl)NCNS2(=O)=O
REMARK SMILES IDX 2 1 3 2 4 3 1 4 5 7 6 8 10 9 7 10 9 11 11 12 8 13 15 14
REMARK SMILES IDX 12 15 14 16 16 17 17 18 13 19
REMARK H PARENT 1 5 1 6 12 20 14 21
REMARK Flexibility Score: inf
ROOT
ATOM      1  S   UNL     1       3.337   0.117  -0.831  1.00  0.00     0.239 S 
ATOM      2  O   UNL     1       4.061  -1.110  -0.609  1.00  0.00    -0.207 OA
ATOM      3  O   UNL     1       3.211   0.706  -2.145  1.00  0.00    -0.207 OA
ENDROOT
BRANCH   1   4
ATOM      4  N   UNL     1       4.019   1.332   0.105  1.00  0.00    -0.225 NA
ATOM      5  H   UNL     1       4.156   2.172  -0.459  1.00  0.00     0.137 HD
ATOM      6  H   UNL     1       3.560   1.503   0.997  1.00  0.00     0.137 HD
ENDBRANCH   1   4
BRANCH   1   7
ATOM      7  C   UNL     1       1.708  -0.075  -0.164  1.00  0.00     0.102 A 
ATOM      8  C   UNL     1       0.616   0.115  -1.019  1.00  0.00     0.047 A 
ATOM      9  C   UNL     1       1.491  -0.447   1.163  1.00  0.00     0.063 A 
ATOM     10  C   UNL     1      -0.682  -0.052  -0.523  1.00  0.00     0.107 A 
ATOM     11  C   UNL     1       0.176  -0.619   1.631  1.00  0.00     0.049 A 
ATOM     12  Cl  UNL     1       2.755  -0.692   2.312  1.00  0.00    -0.083 Cl
ATOM     13  C   UNL     1      -0.935  -0.396   0.806  1.00  0.00     0.057 A 
ATOM     14  S   UNL     1      -2.043   0.151  -1.622  1.00  0.00     0.244 S 
ATOM     15  N   UNL     1      -2.214  -0.676   1.299  1.00  0.00    -0.370 N 
ATOM     16  N   UNL     1      -3.291  -0.562  -0.772  1.00  0.00    -0.193 NA
ATOM     17  O   UNL     1      -2.301   1.571  -1.711  1.00  0.00    -0.207 OA
ATOM     18  O   UNL     1      -1.806  -0.673  -2.784  1.00  0.00    -0.207 OA
ATOM     19  C   UNL     1      -3.348  -0.126   0.594  1.00  0.00     0.214 C 
ATOM     20  H   UNL     1      -2.289  -0.547   2.306  1.00  0.00     0.161 HD
ATOM     21  H   UNL     1      -3.302  -1.571  -0.898  1.00  0.00     0.143 HD
ENDBRANCH   1   7
TORSDOF 2
