REMARK SMILES Cn1c(=O)c2c(ncn2C)n(C)c1=O
REMARK SMILES IDX 1 1 2 2 3 3 4 4 5 5 6 6 7 7 8 8 9 9 10 10 11 11 12 12 13 13
REMARK SMILES IDX 14 14
REMARK H PARENT
REMARK Flexibility Score: inf
ROOT
ATOM      1  C   UNL     1      -1.512   2.788  -0.159  1.00  0.00     0.159 C 
ATOM      2  N   UNL     1      -0.969   1.447  -0.063  1.00  0.00    -0.261 N 
ATOM      3  C   UNL     1       0.414   1.285  -0.190  1.00  0.00     0.282 C 
ATOM      4  O   UNL     1       1.207   2.203  -0.379  1.00  0.00    -0.267 OA
ATOM      5  C   UNL     1       0.821  -0.072  -0.078  1.00  0.00     0.152 A 
ATOM      6  C   UNL     1      -0.049  -1.098   0.131  1.00  0.00     0.167 A 
ATOM      7  N   UNL     1       0.587  -2.300   0.201  1.00  0.00    -0.218 NA
ATOM      8  C   UNL     1       1.862  -2.006   0.033  1.00  0.00     0.202 A 
ATOM      9  N   UNL     1       2.051  -0.660  -0.141  1.00  0.00    -0.328 N 
ATOM     10  C   UNL     1       3.314   0.001  -0.349  1.00  0.00     0.151 C 
ATOM     11  N   UNL     1      -1.402  -0.888   0.249  1.00  0.00    -0.279 N 
ATOM     12  C   UNL     1      -2.295  -2.010   0.472  1.00  0.00     0.157 C 
ATOM     13  C   UNL     1      -1.902   0.411   0.153  1.00  0.00     0.332 C 
ATOM     14  O   UNL     1      -3.109   0.655   0.253  1.00  0.00    -0.247 OA
ENDROOT
TORSDOF 0
