REMARK SMILES C=CCC1(C(C)C#CCC)C(=O)NC(=O)N(C)C1=O
REMARK SMILES IDX 4 1 11 2 12 3 13 4 14 5 15 6 16 7 17 8 18 9 19 10 3 12 2 13
REMARK SMILES IDX 1 14 5 15 6 16 7 17 8 18 9 19 10 20
REMARK H PARENT 13 11
REMARK Flexibility Score: inf
ROOT
ATOM      1  C   UNL     1      -0.474  -0.168  -0.115  1.00  0.00     0.145 C 
ATOM      2  C   UNL     1      -0.033   0.458   1.193  1.00  0.00     0.245 C 
ATOM      3  O   UNL     1       0.906   0.059   1.876  1.00  0.00    -0.273 OA
ATOM      4  N   UNL     1      -0.740   1.552   1.587  1.00  0.00    -0.277 N 
ATOM      5  C   UNL     1      -2.095   1.599   1.481  1.00  0.00     0.330 C 
ATOM      6  O   UNL     1      -2.732   2.306   2.259  1.00  0.00    -0.248 OA
ATOM      7  N   UNL     1      -2.670   0.816   0.502  1.00  0.00    -0.266 N 
ATOM      8  C   UNL     1      -4.103   0.932   0.301  1.00  0.00     0.158 C 
ATOM      9  C   UNL     1      -1.948   0.070  -0.417  1.00  0.00     0.247 C 
ATOM     10  O   UNL     1      -2.459  -0.363  -1.454  1.00  0.00    -0.273 OA
ATOM     11  H   UNL     1      -0.407   1.976   2.443  1.00  0.00     0.174 HD
ENDROOT
BRANCH   1  12
ATOM     12  C   UNL     1      -0.266  -1.709  -0.043  1.00  0.00     0.055 C 
BRANCH  12  13
ATOM     13  C   UNL     1      -1.062  -2.396   1.043  1.00  0.00    -0.033 C 
ATOM     14  C   UNL     1      -2.155  -3.135   0.815  1.00  0.00     0.004 C 
ENDBRANCH  12  13
ENDBRANCH   1  12
BRANCH   1  15
ATOM     15  C   UNL     1       0.338   0.438  -1.308  1.00  0.00     0.086 C 
ATOM     16  C   UNL     1       0.133   1.947  -1.514  1.00  0.00     0.023 C 
BRANCH  15  17
ATOM     17  C   UNL     1       1.791   0.176  -1.194  1.00  0.00    -0.099 C 
ATOM     18  C   UNL     1       2.968  -0.038  -1.084  1.00  0.00    -0.103 C 
BRANCH  18  19
ATOM     19  C   UNL     1       4.403  -0.305  -0.922  1.00  0.00     0.086 C 
ATOM     20  C   UNL     1       4.862   0.008   0.492  1.00  0.00     0.018 C 
ENDBRANCH  18  19
ENDBRANCH  15  17
ENDBRANCH   1  15
TORSDOF 5
