REMARK SMILES Nc1ncn([C@@H]2O[C@H](CO)[C@@H](O)[C@H]2O)c(=O)n1
REMARK SMILES IDX 6 1 7 2 8 3 11 4 13 5 5 6 1 7 2 8 3 11 17 12 4 13 15 14
REMARK SMILES IDX 16 15 14 16 9 18 10 19 12 21
REMARK H PARENT 1 9 1 10 14 17 10 20 12 22
REMARK Flexibility Score: inf
ROOT
ATOM      1  C   UNL     1      -0.079   0.663  -0.462  1.00  0.00     0.256 C 
ATOM      2  O   UNL     1      -1.039   0.969   0.575  1.00  0.00    -0.346 OA
ATOM      3  C   UNL     1      -2.329   0.445   0.149  1.00  0.00     0.178 C 
ATOM      4  C   UNL     1      -2.135  -0.175  -1.234  1.00  0.00     0.179 C 
ATOM      5  C   UNL     1      -0.660  -0.541  -1.217  1.00  0.00     0.196 C 
ENDROOT
BRANCH   1   6
ATOM      6  N   UNL     1       1.217   0.410   0.130  1.00  0.00    -0.253 N 
ATOM      7  N   UNL     1       4.813  -0.625   1.542  1.00  0.00    -0.368 N 
ATOM      8  C   UNL     1       3.610  -0.290   1.021  1.00  0.00     0.226 C 
ATOM      9  H   UNL     1       5.552   0.006   1.262  1.00  0.00     0.159 HD
ATOM     10  H   UNL     1       4.778  -0.824   2.533  1.00  0.00     0.159 HD
ATOM     11  N   UNL     1       2.515  -0.757   1.667  1.00  0.00    -0.203 NA
ATOM     12  N   UNL     1       3.558   0.456  -0.026  1.00  0.00    -0.157 NA
ATOM     13  C   UNL     1       1.374  -0.399   1.202  1.00  0.00     0.210 C 
ATOM     14  C   UNL     1       2.345   0.784  -0.559  1.00  0.00     0.354 C 
ATOM     15  O   UNL     1       2.273   1.400  -1.620  1.00  0.00    -0.245 OA
ENDBRANCH   1   6
BRANCH   5  16
ATOM     16  O   UNL     1      -0.144  -0.727  -2.525  1.00  0.00    -0.386 OA
ATOM     17  H   UNL     1      -0.481   0.020  -3.063  1.00  0.00     0.211 HD
ENDBRANCH   5  16
BRANCH   3  18
ATOM     18  C   UNL     1      -2.774  -0.577   1.197  1.00  0.00     0.191 C 
BRANCH  18  19
ATOM     19  O   UNL     1      -2.956   0.071   2.453  1.00  0.00    -0.394 OA
ATOM     20  H   UNL     1      -2.184   0.655   2.584  1.00  0.00     0.210 HD
ENDBRANCH  18  19
ENDBRANCH   3  18
BRANCH   4  21
ATOM     21  O   UNL     1      -2.331   0.810  -2.263  1.00  0.00    -0.387 OA
ATOM     22  H   UNL     1      -3.281   1.027  -2.292  1.00  0.00     0.211 HD
ENDBRANCH   4  21
TORSDOF 5
