REMARK SMILES C[C@]12CCCN1CC1=NNC(=O)c3cc(F)cc4[nH]c2c1c34
REMARK SMILES IDX 1 1 2 2 3 3 4 4 5 5 6 6 7 7 8 8 9 9 10 10 11 11 12 12 13 13
REMARK SMILES IDX 22 14 18 15 19 16 20 17 21 18 17 19 15 20 16 21 14 22
REMARK H PARENT 10 23 19 24
REMARK Flexibility Score: inf
ROOT
ATOM      1  C   UNL     1      -1.079  -0.290   2.581  1.00  0.00     0.035 C 
ATOM      2  C   UNL     1      -1.290   0.365   1.202  1.00  0.00     0.059 C 
ATOM      3  C   UNL     1      -2.143   1.625   1.310  1.00  0.00     0.030 C 
ATOM      4  C   UNL     1      -3.586   1.096   1.302  1.00  0.00     0.018 C 
ATOM      5  C   UNL     1      -3.505  -0.327   0.740  1.00  0.00     0.086 C 
ATOM      6  N   UNL     1      -2.137  -0.400   0.274  1.00  0.00    -0.287 NA
ATOM      7  C   UNL     1      -1.621  -1.712  -0.132  1.00  0.00     0.144 C 
ATOM      8  C   UNL     1      -0.218  -1.552  -0.781  1.00  0.00     0.085 C 
ATOM      9  N   UNL     1       0.202  -2.472  -1.591  1.00  0.00    -0.175 NA
ATOM     10  N   UNL     1       1.391  -2.522  -2.256  1.00  0.00    -0.243 N 
ATOM     11  C   UNL     1       2.516  -1.733  -2.380  1.00  0.00     0.272 C 
ATOM     12  O   UNL     1       3.411  -2.131  -3.134  1.00  0.00    -0.267 OA
ATOM     13  C   UNL     1       2.737  -0.459  -1.678  1.00  0.00     0.054 A 
ATOM     14  C   UNL     1       1.789   0.062  -0.800  1.00  0.00     0.022 A 
ATOM     15  C   UNL     1       2.032   1.269  -0.133  1.00  0.00     0.050 A 
ATOM     16  N   UNL     1       0.933   1.531   0.662  1.00  0.00    -0.356 N 
ATOM     17  C   UNL     1       0.022   0.523   0.511  1.00  0.00     0.046 A 
ATOM     18  C   UNL     1       0.532  -0.385  -0.396  1.00  0.00     0.030 A 
ATOM     19  C   UNL     1       3.212   1.995  -0.319  1.00  0.00     0.066 A 
ATOM     20  C   UNL     1       4.147   1.459  -1.204  1.00  0.00     0.126 A 
ATOM     21  F   UNL     1       5.293   2.122  -1.411  1.00  0.00    -0.207 F 
ATOM     22  C   UNL     1       3.929   0.261  -1.874  1.00  0.00     0.054 A 
ATOM     23  H   UNL     1       1.468  -3.352  -2.839  1.00  0.00     0.194 HD
ATOM     24  H   UNL     1       0.829   2.342   1.258  1.00  0.00     0.166 HD
ENDROOT
TORSDOF 0
