REMARK SMILES Cc1cc(=O)n(-c2ccccc2)n1C
REMARK SMILES IDX 1 1 2 2 3 3 4 4 5 5 6 6 13 7 14 8 7 9 8 10 12 11 9 12 11 13
REMARK SMILES IDX 10 14
REMARK H PARENT
REMARK Flexibility Score: inf
ROOT
ATOM      1  C   UNL     1      -3.663  -0.091  -0.685  1.00  0.00     0.066 C 
ATOM      2  C   UNL     1      -2.394  -0.219   0.090  1.00  0.00     0.037 C 
ATOM      3  C   UNL     1      -2.284  -0.782   1.300  1.00  0.00     0.096 C 
ATOM      4  C   UNL     1      -0.855  -0.685   1.669  1.00  0.00     0.271 C 
ATOM      5  O   UNL     1      -0.420  -1.147   2.711  1.00  0.00    -0.267 OA
ATOM      6  N   UNL     1      -0.209  -0.060   0.595  1.00  0.00    -0.218 N 
ATOM      7  N   UNL     1      -1.179   0.274  -0.401  1.00  0.00    -0.285 N 
ATOM      8  C   UNL     1      -1.130   1.685  -0.823  1.00  0.00     0.172 C 
ENDROOT
BRANCH   6   9
ATOM      9  C   UNL     1       1.170  -0.187   0.280  1.00  0.00     0.067 A 
ATOM     10  C   UNL     1       1.625  -0.114  -1.046  1.00  0.00     0.028 A 
ATOM     11  C   UNL     1       2.119  -0.398   1.289  1.00  0.00     0.028 A 
ATOM     12  C   UNL     1       2.984  -0.236  -1.352  1.00  0.00     0.002 A 
ATOM     13  C   UNL     1       3.480  -0.519   0.985  1.00  0.00     0.002 A 
ATOM     14  C   UNL     1       3.912  -0.436  -0.335  1.00  0.00     0.000 A 
ENDBRANCH   6   9
TORSDOF 1
