REMARK SMILES Cc1nc2ccc(F)cc2n1-c1nc(N)c(F)c(Nc2ccc(C(F)(F)F)cc2)n1
REMARK SMILES IDX 19 1 18 3 12 4 13 5 30 6 14 7 16 8 17 9 11 10 1 11 2 12 3 13
REMARK SMILES IDX 4 14 10 15 5 16 9 17 6 18 7 19 8 20 15 21 20 24 21 25 29 26
REMARK SMILES IDX 22 27 28 28 23 29 24 30 25 31 26 32 27 33
REMARK H PARENT 19 2 15 22 15 23
REMARK Flexibility Score: inf
ROOT
ATOM      1  N   UNL     1       2.087   0.032  -1.961  1.00  0.00    -0.338 N 
ATOM      2  H   UNL     1       2.342  -0.408  -2.839  1.00  0.00     0.168 HD
ENDROOT
BRANCH   1   3
ATOM      3  C   UNL     1       0.694   0.291  -1.913  1.00  0.00     0.174 A 
ATOM      4  C   UNL     1      -1.337   0.358  -0.802  1.00  0.00     0.239 A 
ATOM      5  N   UNL     1      -1.979   0.850  -1.882  1.00  0.00    -0.192 NA
ATOM      6  N   UNL     1      -0.016   0.083  -0.783  1.00  0.00    -0.191 NA
ATOM      7  C   UNL     1      -1.264   1.048  -2.997  1.00  0.00     0.167 A 
ATOM      8  C   UNL     1       0.088   0.783  -3.056  1.00  0.00     0.207 A 
ATOM      9  F   UNL     1       0.786   0.968  -4.189  1.00  0.00    -0.199 F 
BRANCH   4  10
ATOM     10  N   UNL     1      -2.114   0.095   0.376  1.00  0.00    -0.264 N 
ATOM     11  C   UNL     1      -0.315  -1.043   1.800  1.00  0.00     0.088 C 
ATOM     12  C   UNL     1      -1.686  -0.524   1.550  1.00  0.00     0.113 A 
ATOM     13  N   UNL     1      -2.660  -0.617   2.434  1.00  0.00    -0.233 NA
ATOM     14  C   UNL     1      -3.756  -0.062   1.847  1.00  0.00     0.089 A 
ATOM     15  C   UNL     1      -3.465   0.395   0.563  1.00  0.00     0.079 A 
ATOM     16  C   UNL     1      -5.052   0.084   2.372  1.00  0.00     0.033 A 
ATOM     17  C   UNL     1      -4.449   1.016  -0.228  1.00  0.00     0.068 A 
ATOM     18  C   UNL     1      -6.037   0.693   1.591  1.00  0.00     0.041 A 
ATOM     19  C   UNL     1      -5.728   1.148   0.316  1.00  0.00     0.125 A 
ATOM     20  F   UNL     1      -6.686   1.732  -0.417  1.00  0.00    -0.207 F 
ENDBRANCH   4  10
BRANCH   7  21
ATOM     21  N   UNL     1      -1.950   1.597  -4.081  1.00  0.00    -0.381 N 
ATOM     22  H   UNL     1      -2.942   1.646  -3.871  1.00  0.00     0.158 HD
ATOM     23  H   UNL     1      -1.748   1.127  -4.957  1.00  0.00     0.158 HD
ENDBRANCH   7  21
ENDBRANCH   1   3
BRANCH   1  24
ATOM     24  C   UNL     1       2.980  -0.240  -0.909  1.00  0.00     0.040 A 
ATOM     25  C   UNL     1       4.086  -1.069  -1.140  1.00  0.00     0.027 A 
ATOM     26  C   UNL     1       2.839   0.329   0.360  1.00  0.00     0.027 A 
ATOM     27  C   UNL     1       5.004  -1.350  -0.121  1.00  0.00     0.015 A 
ATOM     28  C   UNL     1       3.753   0.054   1.383  1.00  0.00     0.015 A 
ATOM     29  C   UNL     1       4.840  -0.800   1.157  1.00  0.00     0.056 A 
BRANCH  29  30
ATOM     30  C   UNL     1       5.840  -1.081   2.251  1.00  0.00     0.416 C 
ATOM     31  F   UNL     1       6.868  -0.189   2.254  1.00  0.00    -0.166 F 
ATOM     32  F   UNL     1       6.414  -2.312   2.144  1.00  0.00    -0.166 F 
ATOM     33  F   UNL     1       5.297  -1.032   3.499  1.00  0.00    -0.166 F 
ENDBRANCH  29  30
ENDBRANCH   1  24
TORSDOF 5
