REMARK SMILES O=C(COc1ccc(Cl)cc1)N1CCN(Cc2ccc3c(c2)OCO3)CC1
REMARK SMILES IDX 1 1 2 2 12 3 13 4 14 5 15 6 26 7 27 8 3 9 4 10 5 11 6 12
REMARK SMILES IDX 11 13 7 14 10 15 8 16 9 17 16 18 17 19 18 20 22 21 19 22
REMARK SMILES IDX 21 23 20 24 23 25 25 26 24 27
REMARK H PARENT
REMARK Flexibility Score: inf
ROOT
ATOM      1  O   UNL     1      -3.093  -1.610  -1.447  1.00  0.00    -0.271 OA
ATOM      2  C   UNL     1      -2.500  -1.231  -0.436  1.00  0.00     0.260 C 
ATOM      3  N   UNL     1      -1.112  -1.178  -0.387  1.00  0.00    -0.337 N 
ATOM      4  C   UNL     1      -0.339  -1.670  -1.530  1.00  0.00     0.135 C 
ATOM      5  C   UNL     1       0.995  -2.303  -1.093  1.00  0.00     0.106 C 
ATOM      6  N   UNL     1       1.861  -1.447  -0.252  1.00  0.00    -0.296 NA
ATOM      7  C   UNL     1       1.110  -0.339   0.374  1.00  0.00     0.106 C 
ATOM      8  C   UNL     1      -0.330  -0.721   0.766  1.00  0.00     0.135 C 
ENDROOT
BRANCH   2   9
ATOM      9  C   UNL     1      -3.255  -0.783   0.829  1.00  0.00     0.329 C 
BRANCH   9  10
ATOM     10  O   UNL     1      -4.655  -1.028   0.837  1.00  0.00    -0.484 OA
BRANCH  10  11
ATOM     11  C   UNL     1      -5.475  -0.081   0.292  1.00  0.00     0.120 A 
ATOM     12  C   UNL     1      -6.821  -0.199   0.651  1.00  0.00     0.048 A 
ATOM     13  C   UNL     1      -5.087   0.937  -0.581  1.00  0.00     0.048 A 
ATOM     14  C   UNL     1      -7.771   0.702   0.164  1.00  0.00     0.024 A 
ATOM     15  C   UNL     1      -6.036   1.840  -1.073  1.00  0.00     0.024 A 
ATOM     16  C   UNL     1      -7.372   1.722  -0.696  1.00  0.00     0.041 A 
ATOM     17  Cl  UNL     1      -8.534   2.836  -1.301  1.00  0.00    -0.084 Cl
ENDBRANCH  10  11
ENDBRANCH   9  10
ENDBRANCH   2   9
BRANCH   6  18
ATOM     18  C   UNL     1       3.028  -0.959  -1.004  1.00  0.00     0.120 C 
BRANCH  18  19
ATOM     19  C   UNL     1       4.057  -0.270  -0.131  1.00  0.00    -0.030 A 
ATOM     20  C   UNL     1       4.703  -0.985   0.906  1.00  0.00     0.009 A 
ATOM     21  C   UNL     1       4.382   1.080  -0.346  1.00  0.00     0.055 A 
ATOM     22  C   UNL     1       5.657  -0.370   1.722  1.00  0.00     0.051 A 
ATOM     23  C   UNL     1       5.326   1.659   0.475  1.00  0.00     0.166 A 
ATOM     24  C   UNL     1       5.946   0.955   1.480  1.00  0.00     0.165 A 
ATOM     25  O   UNL     1       5.753   2.949   0.406  1.00  0.00    -0.454 OA
ATOM     26  O   UNL     1       6.840   1.712   2.169  1.00  0.00    -0.454 OA
ATOM     27  C   UNL     1       6.717   2.973   1.479  1.00  0.00     0.468 C 
ENDBRANCH  18  19
ENDBRANCH   6  18
TORSDOF 5
