lig
     RDKit          3D

 44 48  0  0  0  0  0  0  0  0999 V2000
   -4.4236    0.2895    0.4004 C   0  0  0  0  0  0  0  0  0  0  0  0
   -3.7643    0.9915   -0.7947 C   0  0  0  0  0  0  0  0  0  0  0  0
   -2.5105    0.2039   -1.1269 C   0  0  1  0  0  0  0  0  0  0  0  0
   -1.3057    0.8939   -0.6338 C   0  0  0  0  0  0  0  0  0  0  0  0
   -0.5677    0.3160    0.5156 C   0  0  0  0  0  0  0  0  0  0  0  0
    0.8447    0.3410    0.3699 O   0  0  0  0  0  0  0  0  0  0  0  0
    1.6680    1.0533    1.2291 C   0  0  0  0  0  0  0  0  0  0  0  0
    1.1364    1.6955    2.1657 O   0  0  0  0  0  0  0  0  0  0  0  0
    3.1097    1.0215    1.0027 C   0  0  0  0  0  0  0  0  0  0  0  0
    4.0803    1.6681    1.7547 C   0  0  0  0  0  0  0  0  0  0  0  0
    5.2917    1.3931    1.2286 N   0  0  0  0  0  0  0  0  0  0  0  0
    5.1580    0.5981    0.1696 C   0  0  0  0  0  0  0  0  0  0  0  0
    6.0837    0.0538   -0.6848 C   0  0  0  0  0  0  0  0  0  0  0  0
    5.6450   -0.7538   -1.7223 C   0  0  0  0  0  0  0  0  0  0  0  0
    4.2935   -1.0117   -1.8998 C   0  0  0  0  0  0  0  0  0  0  0  0
    3.3721   -0.4622   -1.0389 C   0  0  0  0  0  0  0  0  0  0  0  0
    3.8057    0.3449   -0.0015 C   0  0  0  0  0  0  0  0  0  0  0  0
   -1.0187   -1.0615    0.9276 C   0  0  0  0  0  0  0  0  0  0  0  0
   -2.5109   -1.2255    0.7119 C   0  0  1  0  0  0  0  0  0  0  0  0
   -3.3056   -0.1383    1.3611 C   0  0  0  0  0  0  0  0  0  0  0  0
   -2.6427   -1.1661   -0.7470 N   0  0  0  0  0  0  0  0  0  0  0  0
   -3.9194   -1.7187   -1.0677 C   0  0  0  0  0  0  0  0  0  0  0  0
   -4.9151   -0.9949   -0.1905 C   0  0  0  0  0  0  0  0  0  0  0  0
   -6.0326   -1.4351    0.0128 O   0  0  0  0  0  0  0  0  0  0  0  0
   -5.1981    0.8866    0.8758 H   0  0  0  0  0  0  0  0  0  0  0  0
   -3.4839    2.0427   -0.5144 H   0  0  0  0  0  0  0  0  0  0  0  0
   -4.5115    0.9930   -1.5916 H   0  0  0  0  0  0  0  0  0  0  0  0
   -2.5135    0.1825   -2.2586 H   0  0  0  0  0  0  0  0  0  0  0  0
   -0.5523    0.9710   -1.4745 H   0  0  0  0  0  0  0  0  0  0  0  0
   -1.5566    1.9626   -0.4565 H   0  0  0  0  0  0  0  0  0  0  0  0
   -0.7408    0.9593    1.4078 H   0  0  0  0  0  0  0  0  0  0  0  0
    3.8572    2.2951    2.6317 H   0  0  0  0  0  0  0  0  0  0  0  0
    6.2254    1.7488    1.5916 H   0  0  0  0  0  0  0  0  0  0  0  0
    7.1483    0.2045   -0.6160 H   0  0  0  0  0  0  0  0  0  0  0  0
    6.3471   -1.1940   -2.4073 H   0  0  0  0  0  0  0  0  0  0  0  0
    3.9381   -1.6412   -2.7067 H   0  0  0  0  0  0  0  0  0  0  0  0
    2.3161   -0.6697   -1.1857 H   0  0  0  0  0  0  0  0  0  0  0  0
   -0.7808   -1.2770    1.9818 H   0  0  0  0  0  0  0  0  0  0  0  0
   -0.5128   -1.8172    0.3025 H   0  0  0  0  0  0  0  0  0  0  0  0
   -2.8174   -2.2252    1.0334 H   0  0  0  0  0  0  0  0  0  0  0  0
   -2.7357    0.7064    1.7501 H   0  0  0  0  0  0  0  0  0  0  0  0
   -3.8564   -0.6086    2.2176 H   0  0  0  0  0  0  0  0  0  0  0  0
   -3.9542   -2.7697   -0.7390 H   0  0  0  0  0  0  0  0  0  0  0  0
   -4.1903   -1.6462   -2.1351 H   0  0  0  0  0  0  0  0  0  0  0  0
  1  2  1  0
  2  3  1  0
  3  4  1  0
  4  5  1  0
  5  6  1  0
  6  7  1  0
  7  8  2  0
  7  9  1  0
  9 10  2  0
 10 11  1  0
 11 12  1  0
 12 13  2  0
 13 14  1  0
 14 15  2  0
 15 16  1  0
 16 17  2  0
  5 18  1  0
 18 19  1  0
 19 20  1  0
 19 21  1  0
 21 22  1  0
 22 23  1  0
 23 24  2  0
 17  9  1  0
 17 12  1  0
 20  1  1  0
 21  3  1  0
 23  1  1  0
  1 25  1  0
  2 26  1  0
  2 27  1  0
  3 28  1  6
  4 29  1  0
  4 30  1  0
  5 31  1  0
 10 32  1  0
 11 33  1  0
 13 34  1  0
 14 35  1  0
 15 36  1  0
 16 37  1  0
 18 38  1  0
 18 39  1  0
 19 40  1  1
 20 41  1  0
 20 42  1  0
 22 43  1  0
 22 44  1  0
M  END
$$$$
