REMARK SMILES NC(=O)c1cccnc1
REMARK SMILES IDX 4 1 5 2 6 3 7 4 8 5 9 6 2 7 1 8 3 11
REMARK H PARENT 1 9 1 10
REMARK Flexibility Score: inf
ROOT
ATOM      1  C   UNL     1      -0.281   0.186   0.005  1.00  0.00     0.057 A 
ATOM      2  C   UNL     1       0.710   0.902  -0.670  1.00  0.00     0.017 A 
ATOM      3  C   UNL     1       2.047   0.545  -0.510  1.00  0.00     0.021 A 
ATOM      4  C   UNL     1       2.347  -0.518   0.327  1.00  0.00     0.111 A 
ATOM      5  N   UNL     1       1.417  -1.226   1.005  1.00  0.00    -0.264 NA
ATOM      6  C   UNL     1       0.124  -0.850   0.836  1.00  0.00     0.124 A 
ENDROOT
BRANCH   1   7
ATOM      7  C   UNL     1      -1.700   0.566  -0.163  1.00  0.00     0.250 C 
ATOM      8  N   UNL     1      -2.655  -0.370   0.121  1.00  0.00    -0.366 N 
ATOM      9  H   UNL     1      -2.455  -1.359   0.181  1.00  0.00     0.159 HD
ATOM     10  H   UNL     1      -3.605  -0.112  -0.121  1.00  0.00     0.159 HD
ATOM     11  O   UNL     1      -2.017   1.674  -0.578  1.00  0.00    -0.269 OA
ENDBRANCH   1   7
TORSDOF 1
