REMARK SMILES N=C(N)NC(=O)c1nc(Cl)c(N)nc1N
REMARK SMILES IDX 7 1 8 2 9 3 10 4 11 5 13 6 14 7 5 8 1 9 2 10 3 12 4 13 6 17
REMARK SMILES IDX 15 18 12 21
REMARK H PARENT 1 11 3 14 3 15 4 16 15 19 15 20 12 22 12 23
REMARK Flexibility Score: inf
ROOT
ATOM      1  C   UNL     1      -0.355   0.309   0.163  1.00  0.00     0.172 A 
ATOM      2  N   UNL     1      -0.766  -0.987   0.023  1.00  0.00    -0.223 NA
ATOM      3  C   UNL     1      -2.082  -1.117  -0.253  1.00  0.00     0.172 A 
ATOM      4  Cl  UNL     1      -2.591  -2.750  -0.432  1.00  0.00    -0.058 Cl
ATOM      5  C   UNL     1      -2.972  -0.038  -0.387  1.00  0.00     0.163 A 
ATOM      6  N   UNL     1      -2.526   1.228  -0.235  1.00  0.00    -0.209 NA
ATOM      7  C   UNL     1      -1.212   1.418   0.031  1.00  0.00     0.157 A 
ENDROOT
BRANCH   1   8
ATOM      8  C   UNL     1       1.103   0.471   0.454  1.00  0.00     0.280 C 
ATOM      9  N   UNL     1       3.549  -2.106   1.035  1.00  0.00    -0.269 NA
ATOM     10  C   UNL     1       3.068  -0.916   0.995  1.00  0.00     0.192 C 
ATOM     11  H   UNL     1       2.852  -2.797   0.758  1.00  0.00     0.191 HD
ATOM     12  N   UNL     1       3.839   0.135   1.326  1.00  0.00    -0.370 N 
ATOM     13  N   UNL     1       1.773  -0.737   0.607  1.00  0.00    -0.291 N 
ATOM     14  H   UNL     1       3.550   1.036   0.953  1.00  0.00     0.159 HD
ATOM     15  H   UNL     1       4.832  -0.054   1.284  1.00  0.00     0.159 HD
ATOM     16  H   UNL     1       1.207  -1.564   0.458  1.00  0.00     0.173 HD
ATOM     17  O   UNL     1       1.633   1.578   0.499  1.00  0.00    -0.267 OA
ENDBRANCH   1   8
BRANCH   7  18
ATOM     18  N   UNL     1      -0.816   2.747   0.238  1.00  0.00    -0.382 N 
ATOM     19  H   UNL     1      -0.571   2.884   1.217  1.00  0.00     0.158 HD
ATOM     20  H   UNL     1       0.051   2.931  -0.271  1.00  0.00     0.158 HD
ENDBRANCH   7  18
BRANCH   5  21
ATOM     21  N   UNL     1      -4.338  -0.202  -0.671  1.00  0.00    -0.381 N 
ATOM     22  H   UNL     1      -4.776  -0.769   0.051  1.00  0.00     0.158 HD
ATOM     23  H   UNL     1      -4.451  -0.699  -1.551  1.00  0.00     0.158 HD
ENDBRANCH   5  21
TORSDOF 3
