REMARK SMILES CC(C)(C)NC[C@H](O)COc1nsnc1N1CCOCC1
REMARK SMILES IDX 9 1 7 2 6 3 5 4 2 6 1 7 3 8 4 9 8 10 10 12 11 13 12 14 15 15
REMARK SMILES IDX 13 16 14 17 16 18 17 19 21 20 18 21 20 22 19 23
REMARK H PARENT 5 5 8 11
REMARK Flexibility Score: inf
ROOT
ATOM      1  C   UNL     1      -0.195   0.093   1.135  1.00  0.00     0.264 C 
ENDROOT
BRANCH   1   2
ATOM      2  C   UNL     1      -0.852   0.432  -0.216  1.00  0.00     0.166 C 
BRANCH   2   3
ATOM      3  C   UNL     1      -2.390   0.458  -0.112  1.00  0.00     0.116 C 
BRANCH   3   4
ATOM      4  N   UNL     1      -2.929  -0.900   0.088  1.00  0.00    -0.309 NA
ATOM      5  H   UNL     1      -2.876  -1.377  -0.816  1.00  0.00     0.123 HD
BRANCH   4   6
ATOM      6  C   UNL     1      -4.330  -0.963   0.556  1.00  0.00     0.010 C 
ATOM      7  C   UNL     1      -5.290  -0.177  -0.352  1.00  0.00     0.027 C 
ATOM      8  C   UNL     1      -4.731  -2.450   0.522  1.00  0.00     0.027 C 
ATOM      9  C   UNL     1      -4.448  -0.468   2.007  1.00  0.00     0.027 C 
ENDBRANCH   4   6
ENDBRANCH   3   4
ENDBRANCH   2   3
BRANCH   2  10
ATOM     10  O   UNL     1      -0.460  -0.532  -1.211  1.00  0.00    -0.388 OA
ATOM     11  H   UNL     1      -0.736  -1.396  -0.854  1.00  0.00     0.211 HD
ENDBRANCH   2  10
ENDBRANCH   1   2
BRANCH   1  12
ATOM     12  O   UNL     1       1.234   0.169   1.057  1.00  0.00    -0.472 OA
BRANCH  12  13
ATOM     13  C   UNL     1       1.756   1.425   1.037  1.00  0.00     0.270 A 
ATOM     14  N   UNL     1       1.041   2.431   1.548  1.00  0.00    -0.133 NA
ATOM     15  C   UNL     1       3.091   1.761   0.546  1.00  0.00     0.207 A 
ATOM     16  S   UNL     1       2.055   3.751   1.438  1.00  0.00     0.074 S 
ATOM     17  N   UNL     1       3.395   3.052   0.739  1.00  0.00    -0.151 NA
BRANCH  15  18
ATOM     18  N   UNL     1       3.961   0.851  -0.023  1.00  0.00    -0.347 N 
ATOM     19  C   UNL     1       3.443  -0.006  -1.115  1.00  0.00     0.147 C 
ATOM     20  C   UNL     1       5.334   1.325  -0.304  1.00  0.00     0.147 C 
ATOM     21  C   UNL     1       4.438  -1.136  -1.424  1.00  0.00     0.181 C 
ATOM     22  C   UNL     1       6.249   0.138  -0.637  1.00  0.00     0.181 C 
ATOM     23  O   UNL     1       5.741  -0.625  -1.742  1.00  0.00    -0.378 OA
ENDBRANCH  15  18
ENDBRANCH  12  13
ENDBRANCH   1  12
TORSDOF 8
