REMARK SMILES S=P(N1CC1)(N1CC1)N1CC1
REMARK SMILES IDX 1 1 2 2 3 3 4 4 5 5 6 6 7 7 8 8 9 9 10 10 11 11
REMARK H PARENT
REMARK Flexibility Score: inf
ROOT
ATOM      1  S   UNL     1       0.609   0.137   2.625  1.00  0.00    -0.046 S 
ATOM      2  P   UNL     1       0.015  -0.026   0.756  1.00  0.00     0.145 P 
ENDROOT
BRANCH   2   3
ATOM      3  N   UNL     1      -0.264   1.457   0.036  1.00  0.00    -0.249 NA
ATOM      4  C   UNL     1       0.857   2.370  -0.175  1.00  0.00     0.108 C 
ATOM      5  C   UNL     1       0.109   1.775  -1.336  1.00  0.00     0.108 C 
ENDBRANCH   2   3
BRANCH   2   6
ATOM      6  N   UNL     1       1.003  -0.860  -0.304  1.00  0.00    -0.249 NA
ATOM      7  C   UNL     1       2.431  -1.022  -0.075  1.00  0.00     0.108 C 
ATOM      8  C   UNL     1       1.487  -2.189   0.055  1.00  0.00     0.108 C 
ENDBRANCH   2   6
BRANCH   2   9
ATOM      9  N   UNL     1      -1.411  -0.880   0.620  1.00  0.00    -0.249 NA
ATOM     10  C   UNL     1      -2.687  -0.240   0.911  1.00  0.00     0.108 C 
ATOM     11  C   UNL     1      -2.341  -0.709  -0.482  1.00  0.00     0.108 C 
ENDBRANCH   2   9
TORSDOF 3
