REMARK SMILES NS(=O)(=O)c1cncc(-c2nc(NCc3ccccn3)c3c(-c4ccccc4)cccc3n2)c1
REMARK SMILES IDX 10 1 11 2 12 3 21 4 32 5 31 6 30 7 29 8 22 9 33 10 9 11 5 12
REMARK SMILES IDX 6 13 34 14 7 15 8 16 2 17 3 18 4 19 1 20 13 23 14 25 15 26
REMARK SMILES IDX 20 27 16 28 19 29 17 30 18 31 23 32 24 33 28 34 25 35 27 36
REMARK SMILES IDX 26 37
REMARK H PARENT 1 21 1 22 13 24
REMARK Flexibility Score: inf
ROOT
ATOM      1  C   UNL     1       1.754  -0.538  -0.984  1.00  0.00     0.163 A 
ATOM      2  N   UNL     1       0.528  -0.051  -0.770  1.00  0.00    -0.211 NA
ATOM      3  C   UNL     1      -0.400  -0.873  -0.243  1.00  0.00     0.138 A 
ATOM      4  C   UNL     1      -0.139  -2.244   0.033  1.00  0.00     0.051 A 
ATOM      5  C   UNL     1       1.185  -2.625  -0.259  1.00  0.00     0.077 A 
ATOM      6  C   UNL     1       1.597  -3.931  -0.039  1.00  0.00     0.029 A 
ATOM      7  C   UNL     1       0.743  -4.904   0.467  1.00  0.00     0.003 A 
ATOM      8  C   UNL     1      -0.565  -4.563   0.764  1.00  0.00     0.009 A 
ATOM      9  C   UNL     1      -1.033  -3.251   0.560  1.00  0.00    -0.005 A 
ATOM     10  N   UNL     1       2.114  -1.801  -0.747  1.00  0.00    -0.228 NA
ENDROOT
BRANCH   1  11
ATOM     11  C   UNL     1       2.770   0.393  -1.491  1.00  0.00     0.039 A 
ATOM     12  C   UNL     1       3.476   2.593  -2.235  1.00  0.00     0.101 A 
ATOM     13  C   UNL     1       4.757   2.109  -2.395  1.00  0.00     0.132 A 
ATOM     14  C   UNL     1       2.476   1.736  -1.773  1.00  0.00     0.037 A 
ATOM     15  N   UNL     1       5.088   0.821  -2.149  1.00  0.00    -0.263 NA
ATOM     16  C   UNL     1       4.093   0.004  -1.706  1.00  0.00     0.123 A 
BRANCH  12  17
ATOM     17  S   UNL     1       3.137   4.284  -2.534  1.00  0.00     0.239 S 
ATOM     18  O   UNL     1       4.374   5.027  -2.538  1.00  0.00    -0.207 OA
ATOM     19  O   UNL     1       1.998   4.683  -1.738  1.00  0.00    -0.207 OA
BRANCH  17  20
ATOM     20  N   UNL     1       2.603   4.266  -4.124  1.00  0.00    -0.225 NA
ATOM     21  H   UNL     1       1.633   4.578  -4.175  1.00  0.00     0.137 HD
ATOM     22  H   UNL     1       3.238   4.805  -4.715  1.00  0.00     0.137 HD
ENDBRANCH  17  20
ENDBRANCH  12  17
ENDBRANCH   1  11
BRANCH   3  23
ATOM     23  N   UNL     1      -1.678  -0.324  -0.028  1.00  0.00    -0.364 N 
ATOM     24  H   UNL     1      -1.974  -0.562   0.921  1.00  0.00     0.162 HD
BRANCH  23  25
ATOM     25  C   UNL     1      -1.801   1.130  -0.162  1.00  0.00     0.170 C 
BRANCH  25  26
ATOM     26  C   UNL     1      -1.251   1.852   1.057  1.00  0.00     0.059 A 
ATOM     27  N   UNL     1      -1.558   1.335   2.281  1.00  0.00    -0.259 NA
ATOM     28  C   UNL     1      -0.489   3.009   0.904  1.00  0.00     0.026 A 
ATOM     29  C   UNL     1      -1.072   1.982   3.363  1.00  0.00     0.111 A 
ATOM     30  C   UNL     1      -0.005   3.650   2.041  1.00  0.00     0.004 A 
ATOM     31  C   UNL     1      -0.299   3.128   3.295  1.00  0.00     0.020 A 
ENDBRANCH  25  26
ENDBRANCH  23  25
ENDBRANCH   3  23
BRANCH   9  32
ATOM     32  C   UNL     1      -2.439  -2.998   0.911  1.00  0.00    -0.018 A 
ATOM     33  C   UNL     1      -2.807  -2.736   2.241  1.00  0.00     0.009 A 
ATOM     34  C   UNL     1      -3.444  -3.041  -0.068  1.00  0.00     0.009 A 
ATOM     35  C   UNL     1      -4.142  -2.506   2.579  1.00  0.00     0.001 A 
ATOM     36  C   UNL     1      -4.779  -2.812   0.272  1.00  0.00     0.001 A 
ATOM     37  C   UNL     1      -5.127  -2.544   1.594  1.00  0.00     0.000 A 
ENDBRANCH   9  32
TORSDOF 7
