REMARK SMILES COc1ccccc1N1CCN(CC(O)COc2cccc3ccccc23)CC1
REMARK SMILES IDX 13 1 12 2 9 3 10 4 29 5 11 6 28 7 8 8 3 9 4 10 5 11 7 12
REMARK SMILES IDX 6 13 2 14 1 15 14 16 15 17 16 19 17 20 18 21 19 22 27 23
REMARK SMILES IDX 20 24 22 25 26 26 21 27 23 28 25 29 24 30
REMARK H PARENT 15 18
REMARK Flexibility Score: inf
ROOT
ATOM      1  C   UNL     1      -0.494  -1.456   1.854  1.00  0.00     0.120 C 
ENDROOT
BRANCH   1   2
ATOM      2  N   UNL     1       0.358  -0.765   0.878  1.00  0.00    -0.297 NA
ATOM      3  N   UNL     1       2.817  -0.063  -0.520  1.00  0.00    -0.366 N 
ATOM      4  C   UNL     1       2.206   0.884   0.437  1.00  0.00     0.132 C 
ATOM      5  C   UNL     1       2.566  -1.481  -0.251  1.00  0.00     0.132 C 
ATOM      6  C   UNL     1       1.317   0.172   1.489  1.00  0.00     0.106 C 
ATOM      7  C   UNL     1       1.053  -1.729  -0.012  1.00  0.00     0.106 C 
BRANCH   3   8
ATOM      8  C   UNL     1       4.003   0.363  -1.132  1.00  0.00     0.079 A 
ATOM      9  C   UNL     1       5.230  -0.350  -1.133  1.00  0.00     0.142 A 
ATOM     10  C   UNL     1       6.345   0.164  -1.817  1.00  0.00     0.048 A 
ATOM     11  C   UNL     1       6.276   1.388  -2.484  1.00  0.00     0.004 A 
ATOM     12  C   UNL     1       3.975   1.599  -1.815  1.00  0.00     0.030 A 
ATOM     13  C   UNL     1       5.091   2.108  -2.480  1.00  0.00     0.002 A 
BRANCH   9  14
ATOM     14  O   UNL     1       5.282  -1.538  -0.442  1.00  0.00    -0.495 OA
ATOM     15  C   UNL     1       6.564  -2.031  -0.077  1.00  0.00     0.278 C 
ENDBRANCH   9  14
ENDBRANCH   3   8
ENDBRANCH   1   2
BRANCH   1  16
ATOM     16  C   UNL     1      -1.464  -0.554   2.650  1.00  0.00     0.166 C 
BRANCH  16  17
ATOM     17  O   UNL     1      -2.265  -1.389   3.505  1.00  0.00    -0.388 OA
ATOM     18  H   UNL     1      -2.942  -1.791   2.922  1.00  0.00     0.211 HD
ENDBRANCH  16  17
BRANCH  16  19
ATOM     19  C   UNL     1      -2.392   0.276   1.752  1.00  0.00     0.262 C 
BRANCH  19  20
ATOM     20  O   UNL     1      -3.201  -0.627   0.974  1.00  0.00    -0.490 OA
BRANCH  20  21
ATOM     21  C   UNL     1      -3.685   0.005  -0.146  1.00  0.00     0.127 A 
ATOM     22  C   UNL     1      -2.836   0.143  -1.247  1.00  0.00     0.047 A 
ATOM     23  C   UNL     1      -5.028   0.433  -0.192  1.00  0.00     0.024 A 
ATOM     24  C   UNL     1      -3.304   0.752  -2.405  1.00  0.00     0.004 A 
ATOM     25  C   UNL     1      -5.497   1.042  -1.379  1.00  0.00    -0.015 A 
ATOM     26  C   UNL     1      -5.922   0.286   0.890  1.00  0.00     0.012 A 
ATOM     27  C   UNL     1      -4.624   1.199  -2.470  1.00  0.00     0.009 A 
ATOM     28  C   UNL     1      -6.830   1.480  -1.452  1.00  0.00     0.009 A 
ATOM     29  C   UNL     1      -7.242   0.728   0.802  1.00  0.00     0.001 A 
ATOM     30  C   UNL     1      -7.697   1.322  -0.370  1.00  0.00     0.001 A 
ENDBRANCH  20  21
ENDBRANCH  19  20
ENDBRANCH  16  19
ENDBRANCH   1  16
TORSDOF 8
