REMARK SMILES CC1=Nc2ccc(Cl)cc2S(=O)(=O)N1
REMARK SMILES IDX 1 1 2 2 3 3 4 4 5 5 6 6 7 7 8 8 9 9 10 10 11 11 12 12 13 13
REMARK SMILES IDX 14 14
REMARK H PARENT 14 15
REMARK Flexibility Score: inf
ROOT
ATOM      1  C   UNL     1       3.306   0.688   0.587  1.00  0.00     0.088 C 
ATOM      2  C   UNL     1       1.907   0.226   0.298  1.00  0.00     0.113 C 
ATOM      3  N   UNL     1       0.993   1.082  -0.006  1.00  0.00    -0.234 NA
ATOM      4  C   UNL     1      -0.349   0.712  -0.170  1.00  0.00     0.086 A 
ATOM      5  C   UNL     1      -1.286   1.746  -0.281  1.00  0.00     0.031 A 
ATOM      6  C   UNL     1      -2.653   1.474  -0.415  1.00  0.00     0.023 A 
ATOM      7  C   UNL     1      -3.098   0.154  -0.439  1.00  0.00     0.042 A 
ATOM      8  Cl  UNL     1      -4.777  -0.180  -0.599  1.00  0.00    -0.084 Cl
ATOM      9  C   UNL     1      -2.190  -0.892  -0.336  1.00  0.00     0.045 A 
ATOM     10  C   UNL     1      -0.829  -0.593  -0.210  1.00  0.00     0.115 A 
ATOM     11  S   UNL     1       0.321  -1.894  -0.112  1.00  0.00     0.265 S 
ATOM     12  O   UNL     1       0.575  -2.374  -1.451  1.00  0.00    -0.201 OA
ATOM     13  O   UNL     1      -0.097  -2.785   0.948  1.00  0.00    -0.201 OA
ATOM     14  N   UNL     1       1.691  -1.143   0.427  1.00  0.00    -0.267 N 
ATOM     15  H   UNL     1       2.359  -1.757   0.881  1.00  0.00     0.181 HD
ENDROOT
TORSDOF 0
