REMARK SMILES O=C(O)C1N=C(c2ccccc2)c2cc(Cl)ccc2NC1=O
REMARK SMILES IDX 4 1 2 3 1 4 3 5 5 7 6 8 7 9 8 10 12 11 9 12 11 13 10 14
REMARK SMILES IDX 13 15 14 16 19 17 15 18 18 19 16 20 17 21 20 22 21 23 22 25
REMARK H PARENT 3 6 20 24
REMARK Flexibility Score: 90.00
ROOT
ATOM      1  C   UNL     1       1.221  -0.977  -1.938  1.00  0.00     0.304 CG0
ATOM      2  G   UNL     1       1.350   0.407  -2.558  1.00  0.00     0.000 G0
ENDROOT
BRANCH   1   3
ATOM      3  C   UNL     1       1.275  -2.070  -2.995  1.00  0.00     0.338 C 
ATOM      4  O   UNL     1       0.359  -2.742  -3.445  1.00  0.00    -0.249 OA
BRANCH   3   5
ATOM      5  O   UNL     1       2.537  -2.303  -3.431  1.00  0.00    -0.479 OA
ATOM      6  H   UNL     1       2.404  -2.984  -4.125  1.00  0.00     0.296 HD
ENDBRANCH   3   5
ENDBRANCH   1   3
BRANCH   1   7
ATOM      7  N   UNL     1      -0.055  -1.071  -1.213  1.00  0.00    -0.259 NA
ATOM      8  C   UNL     1      -0.233  -0.385  -0.136  1.00  0.00     0.076 C 
BRANCH   8   9
ATOM      9  C   UNL     1      -1.568  -0.520   0.531  1.00  0.00     0.000 A 
ATOM     10  C   UNL     1      -2.205   0.583   1.116  1.00  0.00     0.010 A 
ATOM     11  C   UNL     1      -2.202  -1.768   0.534  1.00  0.00     0.010 A 
ATOM     12  C   UNL     1      -3.450   0.425   1.729  1.00  0.00     0.001 A 
ATOM     13  C   UNL     1      -3.447  -1.921   1.147  1.00  0.00     0.001 A 
ATOM     14  C   UNL     1      -4.067  -0.826   1.748  1.00  0.00     0.000 A 
ENDBRANCH   8   9
BRANCH   8  15
ATOM     15  C   UNL     1       0.782   0.529   0.470  1.00  0.00     0.025 A 
ATOM     16  C   UNL     1       0.924   0.528   1.868  1.00  0.00     0.033 A 
ATOM     17  C   UNL     1       1.507   1.450  -0.303  1.00  0.00     0.050 A 
ATOM     18  C   UNL     1       1.725   1.482   2.489  1.00  0.00     0.041 A 
ATOM     19  C   UNL     1       2.271   2.433   0.342  1.00  0.00     0.028 A 
ATOM     20  Cl  UNL     1       1.878   1.487   4.202  1.00  0.00    -0.084 Cl
ATOM     21  C   UNL     1       2.385   2.446   1.734  1.00  0.00     0.023 A 
BRANCH  17  22
ATOM     22  N   UNL     1       1.520   1.473  -1.705  1.00  0.00    -0.323 N 
ATOM     23  C   UNL     1       1.350   0.407  -2.558  1.00  0.00     0.260 CG0
ATOM     24  H   UNL     1       1.828   2.310  -2.186  1.00  0.00     0.170 HD
ATOM     25  O   UNL     1       1.397   0.621  -3.770  1.00  0.00    -0.272 OA
ATOM     26  G   UNL     1       1.221  -0.977  -1.938  1.00  0.00     0.000 G0
ENDBRANCH  17  22
ENDBRANCH   8  15
ENDBRANCH   1   7
TORSDOF 3
