REMARK SMILES O=C1C(CC[S+]([O-])c2ccccc2)C(=O)N(c2ccccc2)N1c1ccccc1
REMARK SMILES IDX 4 1 3 2 1 3 2 4 23 5 14 6 16 7 15 8 24 9 25 10 29 11 26 12
REMARK SMILES IDX 28 13 27 14 17 15 18 16 22 17 19 18 21 19 20 20 5 21 6 22
REMARK SMILES IDX 7 23 8 24 9 25 13 26 10 27 12 28 11 29
REMARK H PARENT
REMARK Flexibility Score: inf
ROOT
ATOM      1  C   UNL     1       1.363   1.694   0.252  1.00  0.00     0.079 C 
ENDROOT
BRANCH   1   2
ATOM      2  C   UNL     1       0.490   0.930  -0.750  1.00  0.00     0.177 C 
ATOM      3  O   UNL     1       0.617  -1.275   0.205  1.00  0.00    -0.272 OA
ATOM      4  C   UNL     1      -0.078  -0.351  -0.195  1.00  0.00     0.259 C 
ATOM      5  N   UNL     1      -1.471  -0.284  -0.337  1.00  0.00    -0.213 N 
ATOM      6  C   UNL     1      -0.714   1.754  -1.133  1.00  0.00     0.259 C 
ATOM      7  N   UNL     1      -1.852   1.001  -0.804  1.00  0.00    -0.213 N 
ATOM      8  O   UNL     1      -0.640   2.892  -1.574  1.00  0.00    -0.272 OA
BRANCH   5   9
ATOM      9  C   UNL     1      -2.245  -1.460  -0.602  1.00  0.00     0.067 A 
ATOM     10  C   UNL     1      -1.939  -2.679   0.020  1.00  0.00     0.028 A 
ATOM     11  C   UNL     1      -3.335  -1.429  -1.487  1.00  0.00     0.028 A 
ATOM     12  C   UNL     1      -2.696  -3.828  -0.233  1.00  0.00     0.002 A 
ATOM     13  C   UNL     1      -4.092  -2.578  -1.741  1.00  0.00     0.002 A 
ATOM     14  C   UNL     1      -3.772  -3.777  -1.113  1.00  0.00     0.000 A 
ENDBRANCH   5   9
BRANCH   7  15
ATOM     15  C   UNL     1      -3.067   1.640  -0.394  1.00  0.00     0.067 A 
ATOM     16  C   UNL     1      -3.869   1.097   0.624  1.00  0.00     0.028 A 
ATOM     17  C   UNL     1      -3.500   2.827  -1.005  1.00  0.00     0.028 A 
ATOM     18  C   UNL     1      -5.059   1.719   1.016  1.00  0.00     0.002 A 
ATOM     19  C   UNL     1      -4.689   3.449  -0.613  1.00  0.00     0.002 A 
ATOM     20  C   UNL     1      -5.469   2.895   0.397  1.00  0.00     0.000 A 
ENDBRANCH   7  15
ENDBRANCH   1   2
BRANCH   1  21
ATOM     21  C   UNL     1       2.561   0.936   0.825  1.00  0.00     0.283 C 
BRANCH  21  22
ATOM     22  S   UNL     1       3.684   0.333  -0.476  1.00  0.00    -0.015 S 
ATOM     23  O   UNL     1       4.356   1.666  -1.199  1.00  0.00    -0.611 OA
BRANCH  22  24
ATOM     24  C   UNL     1       4.933  -0.378   0.616  1.00  0.00     0.152 A 
ATOM     25  C   UNL     1       4.677  -1.597   1.256  1.00  0.00     0.061 A 
ATOM     26  C   UNL     1       6.159   0.262   0.818  1.00  0.00     0.061 A 
ATOM     27  C   UNL     1       5.635  -2.161   2.101  1.00  0.00     0.005 A 
ATOM     28  C   UNL     1       7.115  -0.302   1.664  1.00  0.00     0.005 A 
ATOM     29  C   UNL     1       6.852  -1.512   2.306  1.00  0.00     0.000 A 
ENDBRANCH  22  24
ENDBRANCH  21  22
ENDBRANCH   1  21
TORSDOF 6
