REMARK SMILES Oc1ncnc2[nH]ncc12
REMARK SMILES IDX 2 1 3 2 4 3 5 4 6 5 7 6 8 7 9 8 10 9 1 11
REMARK H PARENT 7 10 1 12
REMARK Flexibility Score: inf
ROOT
ATOM      1  C   UNL     1      -1.308  -0.324  -0.443  1.00  0.00     0.225 A 
ATOM      2  N   UNL     1      -1.828   0.911  -0.556  1.00  0.00    -0.201 NA
ATOM      3  C   UNL     1      -1.033   1.955  -0.247  1.00  0.00     0.228 A 
ATOM      4  N   UNL     1       0.248   1.928   0.171  1.00  0.00    -0.217 NA
ATOM      5  C   UNL     1       0.703   0.668   0.261  1.00  0.00     0.162 A 
ATOM      6  N   UNL     1       1.950   0.273   0.650  1.00  0.00    -0.261 N 
ATOM      7  N   UNL     1       2.119  -1.068   0.643  1.00  0.00    -0.181 NA
ATOM      8  C   UNL     1       0.929  -1.525   0.233  1.00  0.00     0.151 A 
ATOM      9  C   UNL     1       0.005  -0.492  -0.021  1.00  0.00     0.101 A 
ATOM     10  H   UNL     1       2.719   0.869   0.930  1.00  0.00     0.192 HD
ENDROOT
BRANCH   1  11
ATOM     11  O   UNL     1      -2.151  -1.356  -0.767  1.00  0.00    -0.493 OA
ATOM     12  H   UNL     1      -1.664  -2.184  -0.646  1.00  0.00     0.295 HD
ENDBRANCH   1  11
TORSDOF 1
