REMARK SMILES CC(C(O)c1ccc(O)cc1)N1CCC(Cc2ccccc2)CC1
REMARK SMILES IDX 1 1 2 2 3 3 4 4 5 6 6 7 11 8 7 9 10 10 8 11 9 12 12 14 13 15
REMARK SMILES IDX 24 16 14 17 23 18 15 19 16 20 17 21 18 22 22 23 19 24 21 25
REMARK SMILES IDX 20 26
REMARK H PARENT 4 5 9 13
REMARK Flexibility Score: inf
ROOT
ATOM      1  C   UNL     1      -1.005  -2.548  -1.239  1.00  0.00     0.028 C 
ATOM      2  C   UNL     1      -1.800  -1.297  -0.821  1.00  0.00     0.086 C 
ENDROOT
BRANCH   2   3
ATOM      3  C   UNL     1      -2.849  -1.661   0.286  1.00  0.00     0.161 C 
BRANCH   3   4
ATOM      4  O   UNL     1      -3.691  -2.733  -0.167  1.00  0.00    -0.387 OA
ATOM      5  H   UNL     1      -4.509  -2.688   0.357  1.00  0.00     0.211 HD
ENDBRANCH   3   4
BRANCH   3   6
ATOM      6  C   UNL     1      -3.742  -0.505   0.703  1.00  0.00    -0.018 A 
ATOM      7  C   UNL     1      -3.672   0.008   2.007  1.00  0.00     0.010 A 
ATOM      8  C   UNL     1      -4.657   0.065  -0.199  1.00  0.00     0.010 A 
ATOM      9  C   UNL     1      -4.496   1.064   2.399  1.00  0.00     0.046 A 
ATOM     10  C   UNL     1      -5.481   1.122   0.192  1.00  0.00     0.046 A 
ATOM     11  C   UNL     1      -5.393   1.612   1.491  1.00  0.00     0.115 A 
BRANCH  11  12
ATOM     12  O   UNL     1      -6.178   2.643   1.916  1.00  0.00    -0.508 OA
ATOM     13  H   UNL     1      -6.727   2.939   1.171  1.00  0.00     0.293 HD
ENDBRANCH  11  12
ENDBRANCH   3   6
ENDBRANCH   2   3
BRANCH   2  14
ATOM     14  N   UNL     1      -0.934  -0.157  -0.446  1.00  0.00    -0.298 NA
ATOM     15  C   UNL     1      -0.377   0.555  -1.597  1.00  0.00     0.085 C 
ATOM     16  C   UNL     1       0.006  -0.386   0.653  1.00  0.00     0.085 C 
ATOM     17  C   UNL     1       0.606   1.639  -1.158  1.00  0.00     0.019 C 
ATOM     18  C   UNL     1       1.470  -0.315   0.219  1.00  0.00     0.019 C 
ATOM     19  C   UNL     1       1.815   1.051  -0.403  1.00  0.00    -0.004 C 
BRANCH  19  20
ATOM     20  C   UNL     1       3.046   0.957  -1.328  1.00  0.00     0.039 C 
BRANCH  20  21
ATOM     21  C   UNL     1       4.313   0.550  -0.613  1.00  0.00    -0.048 A 
ATOM     22  C   UNL     1       4.848  -0.733  -0.785  1.00  0.00     0.004 A 
ATOM     23  C   UNL     1       4.968   1.450   0.240  1.00  0.00     0.004 A 
ATOM     24  C   UNL     1       6.015  -1.109  -0.117  1.00  0.00     0.000 A 
ATOM     25  C   UNL     1       6.134   1.072   0.907  1.00  0.00     0.000 A 
ATOM     26  C   UNL     1       6.657  -0.207   0.729  1.00  0.00     0.000 A 
ENDBRANCH  20  21
ENDBRANCH  19  20
ENDBRANCH   2  14
TORSDOF 7
