REMARK SMILES O=C1CN=C(c2ccccn2)c2cc(Br)ccc2N1
REMARK SMILES IDX 12 1 13 2 14 3 15 4 16 5 17 6 18 7 19 8 1 9 2 10 5 13 4 14
REMARK SMILES IDX 6 15 7 16 11 17 8 18 10 19 9 20 3 21
REMARK H PARENT 19 12
REMARK Flexibility Score: 90.00
ROOT
ATOM      1  C   UNL     1      -0.801  -0.503   0.001  1.00  0.00     0.027 A 
ATOM      2  C   UNL     1      -0.409  -1.843   0.157  1.00  0.00     0.028 A 
ATOM      3  C   UNL     1      -1.169  -2.709   0.940  1.00  0.00     0.018 A 
ATOM      4  Br  UNL     1      -0.617  -4.503   1.164  1.00  0.00    -0.051 Br
ATOM      5  C   UNL     1      -2.320  -2.257   1.577  1.00  0.00     0.018 A 
ATOM      6  C   UNL     1      -2.734  -0.936   1.397  1.00  0.00     0.028 A 
ATOM      7  C   UNL     1      -2.008  -0.065   0.573  1.00  0.00     0.050 A 
ENDROOT
BRANCH   7   8
ATOM      8  N   UNL     1      -2.565   1.208   0.372  1.00  0.00    -0.324 N 
ATOM      9  O   UNL     1      -3.036   3.068  -0.798  1.00  0.00    -0.273 OA
ATOM     10  C   UNL     1      -2.435   1.994  -0.743  1.00  0.00     0.246 CG0
ATOM     11  G   UNL     1      -1.642   1.438  -1.914  1.00  0.00     0.000 G0
ATOM     12  H   UNL     1      -3.282   1.540   1.005  1.00  0.00     0.170 HD
ENDBRANCH   7   8
BRANCH   1  13
ATOM     13  C   UNL     1       0.134   0.444  -0.687  1.00  0.00     0.093 C 
ATOM     14  N   UNL     1      -0.232   1.323  -1.563  1.00  0.00    -0.272 NA
BRANCH  13  15
ATOM     15  C   UNL     1       1.596   0.404  -0.317  1.00  0.00     0.089 A 
ATOM     16  C   UNL     1       2.535   1.043  -1.121  1.00  0.00     0.030 A 
ATOM     17  N   UNL     1       1.924  -0.242   0.831  1.00  0.00    -0.255 NA
ATOM     18  C   UNL     1       3.874   1.009  -0.739  1.00  0.00     0.004 A 
ATOM     19  C   UNL     1       3.230  -0.253   1.176  1.00  0.00     0.112 A 
ATOM     20  C   UNL     1       4.230   0.349   0.431  1.00  0.00     0.020 A 
ENDBRANCH  13  15
BRANCH  14  21
ATOM     21  C   UNL     1      -1.642   1.438  -1.914  1.00  0.00     0.243 CG0
ATOM     22  G   UNL     1      -2.435   1.994  -0.743  1.00  0.00     0.000 G0
ENDBRANCH  14  21
ENDBRANCH   1  13
TORSDOF 1
