REMARK SMILES CC(=O)OCC1=C(C(=O)O)N2C(=O)[C@@H](NC(=O)Cc3cccs3)[C@H]2SC1
REMARK SMILES IDX 6 1 7 2 11 3 12 4 13 5 14 6 24 7 25 8 26 9 5 10 4 11 2 12
REMARK SMILES IDX 1 13 3 14 8 15 9 16 10 17 15 19 16 20 17 22 18 23 19 24
REMARK SMILES IDX 20 25 23 26 21 27 22 28
REMARK H PARENT 10 18 15 21
REMARK Flexibility Score: inf
ROOT
ATOM      1  C   UNL     1      -2.700   0.031  -0.126  1.00  0.00     0.008 C 
ATOM      2  C   UNL     1      -1.961  -0.486  -1.135  1.00  0.00     0.134 C 
ATOM      3  N   UNL     1      -0.690  -0.946  -0.939  1.00  0.00    -0.289 N 
ATOM      4  C   UNL     1       0.404  -0.842  -1.734  1.00  0.00     0.253 C 
ATOM      5  O   UNL     1       0.548  -0.590  -2.907  1.00  0.00    -0.272 OA
ATOM      6  C   UNL     1       1.339  -1.016  -0.503  1.00  0.00     0.205 C 
ATOM      7  C   UNL     1       0.019  -0.939   0.329  1.00  0.00     0.181 C 
ATOM      8  S   UNL     1      -0.339   0.622   1.197  1.00  0.00    -0.129 SA
ATOM      9  C   UNL     1      -2.129   0.304   1.247  1.00  0.00     0.108 C 
ENDROOT
BRANCH   1  10
ATOM     10  C   UNL     1      -4.150   0.436  -0.265  1.00  0.00     0.267 C 
BRANCH  10  11
ATOM     11  O   UNL     1      -4.888  -0.235   0.767  1.00  0.00    -0.461 OA
BRANCH  11  12
ATOM     12  C   UNL     1      -6.213   0.081   0.790  1.00  0.00     0.302 C 
ATOM     13  C   UNL     1      -6.906  -0.683   1.875  1.00  0.00     0.139 C 
ATOM     14  O   UNL     1      -6.763   0.873   0.039  1.00  0.00    -0.253 OA
ENDBRANCH  11  12
ENDBRANCH  10  11
ENDBRANCH   1  10
BRANCH   2  15
ATOM     15  C   UNL     1      -2.495  -0.599  -2.520  1.00  0.00     0.352 C 
ATOM     16  O   UNL     1      -2.557  -1.620  -3.181  1.00  0.00    -0.245 OA
BRANCH  15  17
ATOM     17  O   UNL     1      -2.880   0.595  -3.004  1.00  0.00    -0.477 OA
ATOM     18  H   UNL     1      -3.114   0.399  -3.936  1.00  0.00     0.297 HD
ENDBRANCH  15  17
ENDBRANCH   2  15
BRANCH   6  19
ATOM     19  N   UNL     1       2.353   0.056  -0.305  1.00  0.00    -0.341 N 
ATOM     20  C   UNL     1       3.156   0.061   0.818  1.00  0.00     0.225 C 
ATOM     21  H   UNL     1       2.375   0.848  -0.939  1.00  0.00     0.164 HD
ATOM     22  O   UNL     1       3.102  -0.837   1.655  1.00  0.00    -0.275 OA
BRANCH  20  23
ATOM     23  C   UNL     1       4.088   1.255   0.929  1.00  0.00     0.146 C 
BRANCH  23  24
ATOM     24  C   UNL     1       5.494   0.831   0.631  1.00  0.00     0.014 A 
ATOM     25  C   UNL     1       6.084   0.618  -0.602  1.00  0.00     0.016 A 
ATOM     26  S   UNL     1       6.603   0.567   1.913  1.00  0.00    -0.148 S 
ATOM     27  C   UNL     1       7.451   0.230  -0.488  1.00  0.00     0.012 A 
ATOM     28  C   UNL     1       7.860   0.162   0.827  1.00  0.00     0.065 A 
ENDBRANCH  23  24
ENDBRANCH  20  23
ENDBRANCH   6  19
TORSDOF 8
