REMARK SMILES N#Cc1ccc(C(c2ccc(C#N)cc2)n2cncn2)cc1
REMARK SMILES IDX 7 1 6 2 3 3 4 4 22 5 5 6 21 7 2 8 1 9 8 10 9 11 15 12 10 13
REMARK SMILES IDX 14 14 11 15 12 16 13 17 16 18 17 19 20 20 18 21 19 22
REMARK H PARENT
REMARK Flexibility Score: inf
ROOT
ATOM      1  C   UNL     1      -0.374  -0.677   0.783  1.00  0.00     0.169 C 
ENDROOT
BRANCH   1   2
ATOM      2  C   UNL     1       1.017  -0.093   1.058  1.00  0.00    -0.019 A 
ATOM      3  C   UNL     1       3.518   1.100   1.618  1.00  0.00     0.052 A 
ATOM      4  C   UNL     1       3.438  -0.010   0.774  1.00  0.00     0.020 A 
ATOM      5  C   UNL     1       2.351   1.619   2.183  1.00  0.00     0.020 A 
ATOM      6  C   UNL     1       2.200  -0.601   0.495  1.00  0.00     0.007 A 
ATOM      7  C   UNL     1       1.115   1.029   1.905  1.00  0.00     0.007 A 
BRANCH   3   8
ATOM      8  C   UNL     1       4.787   1.703   1.901  1.00  0.00     0.099 C 
ATOM      9  N   UNL     1       5.813   2.196   2.126  1.00  0.00    -0.192 NA
ENDBRANCH   3   8
ENDBRANCH   1   2
BRANCH   1  10
ATOM     10  C   UNL     1      -1.274   0.190  -0.103  1.00  0.00    -0.019 A 
ATOM     11  C   UNL     1      -0.765   0.994  -1.138  1.00  0.00     0.007 A 
ATOM     12  C   UNL     1      -2.666   0.159   0.097  1.00  0.00     0.007 A 
ATOM     13  C   UNL     1      -1.623   1.756  -1.938  1.00  0.00     0.020 A 
ATOM     14  C   UNL     1      -3.523   0.920  -0.703  1.00  0.00     0.020 A 
ATOM     15  C   UNL     1      -3.003   1.723  -1.722  1.00  0.00     0.052 A 
BRANCH  15  16
ATOM     16  C   UNL     1      -3.880   2.506  -2.542  1.00  0.00     0.099 C 
ATOM     17  N   UNL     1      -4.589   3.141  -3.205  1.00  0.00    -0.192 NA
ENDBRANCH  15  16
ENDBRANCH   1  10
BRANCH   1  18
ATOM     18  N   UNL     1      -0.344  -2.069   0.311  1.00  0.00    -0.241 N 
ATOM     19  C   UNL     1      -0.314  -2.541  -0.969  1.00  0.00     0.220 A 
ATOM     20  N   UNL     1      -0.358  -3.097   1.192  1.00  0.00    -0.159 NA
ATOM     21  N   UNL     1      -0.283  -3.853  -0.957  1.00  0.00    -0.223 NA
ATOM     22  C   UNL     1      -0.316  -4.151   0.374  1.00  0.00     0.246 A 
ENDBRANCH   1  18
TORSDOF 5
