REMARK SMILES O=[N+]([O-])c1cn2c(n1)OC[C@@H](OCc1ccc(OC(F)(F)F)cc1)C2
REMARK SMILES IDX 13 1 12 2 11 3 4 4 5 5 8 6 6 7 7 8 25 9 9 10 10 11 2 12 1 13
REMARK SMILES IDX 3 14 14 15 15 16 24 17 16 18 23 19 17 20 18 21 19 22 20 23
REMARK SMILES IDX 21 24 22 25
REMARK H PARENT
REMARK Flexibility Score: inf
ROOT
ATOM      1  C   UNL     1       0.898   1.092  -1.722  1.00  0.00     0.196 C 
ENDROOT
BRANCH   1   2
ATOM      2  O   UNL     1      -0.146   0.194  -2.107  1.00  0.00    -0.368 OA
BRANCH   2   3
ATOM      3  C   UNL     1      -1.062  -0.125  -1.055  1.00  0.00     0.176 C 
ATOM      4  C   UNL     1      -5.073   0.215   0.993  1.00  0.00     0.385 A 
ATOM      5  C   UNL     1      -4.261   1.181   0.425  1.00  0.00     0.200 A 
ATOM      6  N   UNL     1      -4.592  -1.057   0.744  1.00  0.00     0.022 NA
ATOM      7  N   UNL     1      -3.273   0.466  -0.181  1.00  0.00    -0.269 N 
ATOM      8  C   UNL     1      -3.515  -0.865   0.021  1.00  0.00     0.414 A 
ATOM      9  C   UNL     1      -2.130   0.963  -0.908  1.00  0.00     0.165 C 
ATOM     10  O   UNL     1      -2.722  -1.839  -0.415  1.00  0.00    -0.443 OA
ATOM     11  C   UNL     1      -1.764  -1.447  -1.402  1.00  0.00     0.269 C 
BRANCH   4  12
ATOM     12  N   UNL     1      -6.277   0.428   1.767  1.00  0.00    -0.022 N 
ATOM     13  O   UNL     1      -6.877  -0.567   2.194  1.00  0.00    -0.358 OA
ATOM     14  O   UNL     1      -6.618   1.608   1.944  1.00  0.00    -0.358 OA
ENDBRANCH   4  12
ENDBRANCH   2   3
ENDBRANCH   1   2
BRANCH   1  15
ATOM     15  C   UNL     1       1.978   0.387  -0.940  1.00  0.00    -0.022 A 
ATOM     16  C   UNL     1       2.498   0.954   0.230  1.00  0.00     0.010 A 
ATOM     17  C   UNL     1       2.503  -0.831  -1.387  1.00  0.00     0.010 A 
ATOM     18  C   UNL     1       3.511   0.309   0.951  1.00  0.00     0.047 A 
ATOM     19  C   UNL     1       3.512  -1.473  -0.666  1.00  0.00     0.047 A 
ATOM     20  C   UNL     1       4.022  -0.911   0.507  1.00  0.00     0.129 A 
BRANCH  20  21
ATOM     21  O   UNL     1       5.003  -1.648   1.106  1.00  0.00    -0.406 OA
BRANCH  21  22
ATOM     22  C   UNL     1       5.571  -1.145   2.302  1.00  0.00     0.573 C 
ATOM     23  F   UNL     1       6.167   0.049   2.095  1.00  0.00    -0.132 F 
ATOM     24  F   UNL     1       6.512  -2.013   2.735  1.00  0.00    -0.132 F 
ATOM     25  F   UNL     1       4.638  -1.020   3.271  1.00  0.00    -0.132 F 
ENDBRANCH  21  22
ENDBRANCH  20  21
ENDBRANCH   1  15
TORSDOF 6
