REMARK SMILES CC(C)=CCN1CCC2(C)c3cc(O)ccc3CC1C2C
REMARK SMILES IDX 6 1 7 2 8 3 9 4 10 5 11 6 12 7 13 8 15 9 16 10 17 11 18 12
REMARK SMILES IDX 19 13 20 14 21 15 5 16 4 17 1 18 2 19 3 20 14 21
REMARK H PARENT 14 22
REMARK Flexibility Score: inf
ROOT
ATOM      1  N   UNL     1       0.971  -1.272  -0.505  1.00  0.00    -0.296 NA
ATOM      2  C   UNL     1       0.263  -0.722  -1.655  1.00  0.00     0.086 C 
ATOM      3  C   UNL     1      -1.177  -1.249  -1.719  1.00  0.00     0.027 C 
ATOM      4  C   UNL     1      -1.928  -1.134  -0.367  1.00  0.00    -0.002 C 
ATOM      5  C   UNL     1      -3.278  -1.878  -0.481  1.00  0.00     0.017 C 
ATOM      6  C   UNL     1      -2.127   0.368  -0.066  1.00  0.00    -0.035 A 
ATOM      7  C   UNL     1      -3.225   1.087  -0.574  1.00  0.00     0.050 A 
ATOM      8  C   UNL     1      -3.372   2.448  -0.318  1.00  0.00     0.115 A 
ATOM      9  C   UNL     1      -2.435   3.138   0.435  1.00  0.00     0.046 A 
ATOM     10  C   UNL     1      -1.329   2.451   0.930  1.00  0.00     0.008 A 
ATOM     11  C   UNL     1      -1.159   1.078   0.678  1.00  0.00    -0.042 A 
ATOM     12  C   UNL     1       0.068   0.401   1.248  1.00  0.00     0.055 C 
ATOM     13  C   UNL     1       0.304  -1.056   0.792  1.00  0.00     0.065 C 
ATOM     14  C   UNL     1      -1.067  -1.773   0.773  1.00  0.00     0.014 C 
ATOM     15  C   UNL     1      -0.883  -3.298   0.684  1.00  0.00     0.010 C 
ENDROOT
BRANCH   1  16
ATOM     16  C   UNL     1       2.420  -1.088  -0.522  1.00  0.00     0.112 C 
BRANCH  16  17
ATOM     17  C   UNL     1       2.922   0.328  -0.514  1.00  0.00    -0.013 C 
ATOM     18  C   UNL     1       4.193   0.312   1.680  1.00  0.00     0.039 C 
ATOM     19  C   UNL     1       3.698   0.938   0.406  1.00  0.00    -0.079 C 
ATOM     20  C   UNL     1       4.130   2.368   0.213  1.00  0.00     0.039 C 
ENDBRANCH  16  17
ENDBRANCH   1  16
BRANCH   8  21
ATOM     21  O   UNL     1      -4.465   3.076  -0.839  1.00  0.00    -0.508 OA
ATOM     22  H   UNL     1      -4.436   4.011  -0.577  1.00  0.00     0.293 HD
ENDBRANCH   8  21
TORSDOF 3
