REMARK SMILES Cc1c(F)c(N2CCNC(C)C2)cc2c1c(=O)c(C(=O)O)cn2C1CC1
REMARK SMILES IDX 1 1 2 2 3 3 4 4 5 5 13 6 14 7 15 8 16 9 17 10 18 11 22 12
REMARK SMILES IDX 23 13 6 14 7 15 12 16 8 17 10 18 9 19 11 20 24 22 25 23
REMARK SMILES IDX 26 24 19 25 20 26 21 27
REMARK H PARENT 9 21 21 28
REMARK Flexibility Score: inf
ROOT
ATOM      1  C   UNL     1       0.590   3.674   0.386  1.00  0.00     0.048 C 
ATOM      2  C   UNL     1       0.513   2.187   0.175  1.00  0.00     0.000 A 
ATOM      3  C   UNL     1      -0.746   1.613  -0.080  1.00  0.00     0.150 A 
ATOM      4  F   UNL     1      -1.813   2.431  -0.052  1.00  0.00    -0.204 F 
ATOM      5  C   UNL     1      -0.942   0.237  -0.310  1.00  0.00     0.075 A 
ATOM      6  C   UNL     1       0.206  -0.567  -0.228  1.00  0.00     0.056 A 
ATOM      7  C   UNL     1       1.492  -0.052   0.040  1.00  0.00     0.055 A 
ATOM      8  C   UNL     1       1.637   1.339   0.240  1.00  0.00     0.053 A 
ATOM      9  C   UNL     1       3.007   1.868   0.543  1.00  0.00     0.204 C 
ATOM     10  O   UNL     1       3.171   2.996   0.995  1.00  0.00    -0.288 OA
ATOM     11  C   UNL     1       4.158   0.964   0.322  1.00  0.00     0.124 C 
ATOM     12  C   UNL     1       3.894  -0.336   0.141  1.00  0.00     0.106 C 
ATOM     13  N   UNL     1       2.637  -0.904   0.104  1.00  0.00    -0.343 N 
ENDROOT
BRANCH   5  14
ATOM     14  N   UNL     1      -2.195  -0.311  -0.563  1.00  0.00    -0.366 N 
ATOM     15  C   UNL     1      -2.465  -1.752  -0.397  1.00  0.00     0.132 C 
ATOM     16  C   UNL     1      -3.179   0.396  -1.403  1.00  0.00     0.135 C 
ATOM     17  C   UNL     1      -3.971  -2.073  -0.586  1.00  0.00     0.102 C 
ATOM     18  C   UNL     1      -4.606   0.259  -0.788  1.00  0.00     0.070 C 
ATOM     19  N   UNL     1      -4.859  -1.019  -0.063  1.00  0.00    -0.311 NA
ATOM     20  C   UNL     1      -4.899   1.424   0.160  1.00  0.00     0.026 C 
ATOM     21  H   UNL     1      -4.584  -0.865   0.910  1.00  0.00     0.123 HD
ENDBRANCH   5  14
BRANCH  13  22
ATOM     22  C   UNL     1       2.547  -2.358  -0.136  1.00  0.00     0.087 C 
ATOM     23  C   UNL     1       3.343  -3.354   0.673  1.00  0.00     0.027 C 
ATOM     24  C   UNL     1       1.859  -3.278   0.843  1.00  0.00     0.027 C 
ENDBRANCH  13  22
BRANCH  11  25
ATOM     25  C   UNL     1       5.563   1.384   0.317  1.00  0.00     0.341 C 
ATOM     26  O   UNL     1       6.518   0.683   0.611  1.00  0.00    -0.246 OA
BRANCH  25  27
ATOM     27  O   UNL     1       5.740   2.635  -0.135  1.00  0.00    -0.477 OA
ATOM     28  H   UNL     1       6.703   2.795  -0.067  1.00  0.00     0.297 HD
ENDBRANCH  25  27
ENDBRANCH  11  25
TORSDOF 4
