REMARK SMILES CC(=O)OCC(CCn1cnc2cnc(N)nc21)COC(C)=O
REMARK SMILES IDX 7 1 6 2 5 3 4 4 2 5 1 6 3 7 19 8 20 9 21 10 22 11 23 12 8 13
REMARK SMILES IDX 9 14 10 15 18 16 11 17 12 18 17 19 13 20 15 21 14 22 16 23
REMARK H PARENT 16 24 16 25
REMARK Flexibility Score: inf
ROOT
ATOM      1  C   UNL     1      -0.135  -0.411  -0.302  1.00  0.00     0.032 C 
ENDROOT
BRANCH   1   2
ATOM      2  C   UNL     1      -1.181   0.572   0.264  1.00  0.00     0.066 C 
BRANCH   2   3
ATOM      3  C   UNL     1      -2.023  -0.025   1.404  1.00  0.00     0.240 C 
BRANCH   3   4
ATOM      4  O   UNL     1      -2.575  -1.295   1.019  1.00  0.00    -0.465 OA
BRANCH   4   5
ATOM      5  C   UNL     1      -3.779  -1.242   0.381  1.00  0.00     0.302 C 
ATOM      6  C   UNL     1      -4.236  -2.626   0.037  1.00  0.00     0.139 C 
ATOM      7  O   UNL     1      -4.398  -0.222   0.117  1.00  0.00    -0.253 OA
ENDBRANCH   4   5
ENDBRANCH   3   4
ENDBRANCH   2   3
BRANCH   2   8
ATOM      8  C   UNL     1      -0.538   1.895   0.709  1.00  0.00     0.240 C 
BRANCH   8   9
ATOM      9  O   UNL     1      -1.550   2.854   1.056  1.00  0.00    -0.465 OA
BRANCH   9  10
ATOM     10  C   UNL     1      -2.038   3.595   0.021  1.00  0.00     0.302 C 
ATOM     11  C   UNL     1      -3.103   4.524   0.514  1.00  0.00     0.139 C 
ATOM     12  O   UNL     1      -1.670   3.517  -1.142  1.00  0.00    -0.253 OA
ENDBRANCH   9  10
ENDBRANCH   8   9
ENDBRANCH   2   8
ENDBRANCH   1   2
BRANCH   1  13
ATOM     13  C   UNL     1       0.840  -0.979   0.731  1.00  0.00     0.126 C 
BRANCH  13  14
ATOM     14  N   UNL     1       1.868  -1.791   0.113  1.00  0.00    -0.315 N 
ATOM     15  C   UNL     1       1.856  -3.152  -0.022  1.00  0.00     0.201 A 
ATOM     16  C   UNL     1       3.040  -1.331  -0.417  1.00  0.00     0.165 A 
ATOM     17  N   UNL     1       2.949  -3.595  -0.611  1.00  0.00    -0.233 NA
ATOM     18  C   UNL     1       3.695  -2.467  -0.860  1.00  0.00     0.126 A 
ATOM     19  N   UNL     1       3.465  -0.060  -0.499  1.00  0.00    -0.193 NA
ATOM     20  C   UNL     1       4.933  -2.257  -1.451  1.00  0.00     0.147 A 
ATOM     21  C   UNL     1       4.675   0.027  -1.072  1.00  0.00     0.222 A 
ATOM     22  N   UNL     1       5.413  -0.989  -1.557  1.00  0.00    -0.219 NA
BRANCH  21  23
ATOM     23  N   UNL     1       5.204   1.293  -1.227  1.00  0.00    -0.368 N 
ATOM     24  H   UNL     1       5.873   1.285  -1.984  1.00  0.00     0.159 HD
ATOM     25  H   UNL     1       4.460   1.974  -1.275  1.00  0.00     0.159 HD
ENDBRANCH  21  23
ENDBRANCH  13  14
ENDBRANCH   1  13
TORSDOF 10
