REMARK SMILES CN1CCN(C2=Nc3cc(Cl)ccc3Nc3ccccc32)CC1
REMARK SMILES IDX 1 1 2 2 3 3 4 4 5 5 6 6 7 7 8 8 9 9 10 10 11 11 12 12 13 13
REMARK SMILES IDX 14 14 15 15 16 16 17 17 18 18 19 19 20 20 21 21 22 22 23 23
REMARK H PARENT 15 24
REMARK Flexibility Score: inf
ROOT
ATOM      1  C   UNL     1       5.226  -0.516  -0.510  1.00  0.00     0.105 C 
ATOM      2  N   UNL     1       3.958  -1.233  -0.607  1.00  0.00    -0.303 NA
ATOM      3  C   UNL     1       3.374  -1.450   0.736  1.00  0.00     0.105 C 
ATOM      4  C   UNL     1       1.835  -1.547   0.735  1.00  0.00     0.133 C 
ATOM      5  N   UNL     1       1.237  -0.278   0.266  1.00  0.00    -0.353 N 
ATOM      6  C   UNL     1      -0.155  -0.114   0.353  1.00  0.00     0.138 C 
ATOM      7  N   UNL     1      -0.870  -1.181   0.580  1.00  0.00    -0.229 NA
ATOM      8  C   UNL     1      -2.266  -1.245   0.652  1.00  0.00     0.090 A 
ATOM      9  C   UNL     1      -2.780  -2.227   1.512  1.00  0.00     0.051 A 
ATOM     10  C   UNL     1      -4.145  -2.491   1.566  1.00  0.00     0.043 A 
ATOM     11  Cl  UNL     1      -4.745  -3.700   2.633  1.00  0.00    -0.084 Cl
ATOM     12  C   UNL     1      -5.026  -1.794   0.748  1.00  0.00     0.023 A 
ATOM     13  C   UNL     1      -4.532  -0.817  -0.117  1.00  0.00     0.030 A 
ATOM     14  C   UNL     1      -3.155  -0.523  -0.169  1.00  0.00     0.065 A 
ATOM     15  N   UNL     1      -2.730   0.537  -1.008  1.00  0.00    -0.353 N 
ATOM     16  C   UNL     1      -1.865   1.545  -0.532  1.00  0.00     0.050 A 
ATOM     17  C   UNL     1      -2.222   2.890  -0.749  1.00  0.00     0.027 A 
ATOM     18  C   UNL     1      -1.473   3.936  -0.206  1.00  0.00     0.002 A 
ATOM     19  C   UNL     1      -0.354   3.657   0.570  1.00  0.00     0.001 A 
ATOM     20  C   UNL     1       0.027   2.332   0.774  1.00  0.00     0.014 A 
ATOM     21  C   UNL     1      -0.708   1.274   0.207  1.00  0.00     0.041 A 
ATOM     22  C   UNL     1       2.006   0.401  -0.800  1.00  0.00     0.133 C 
ATOM     23  C   UNL     1       3.001  -0.550  -1.501  1.00  0.00     0.105 C 
ATOM     24  H   UNL     1      -3.486   0.905  -1.574  1.00  0.00     0.167 HD
ENDROOT
TORSDOF 0
