REMARK SMILES C[C@@H](n1cnc2cc(Cl)ccc2c1=O)[C@](O)(Cn1cncn1)c1ccc(F)cc1F
REMARK SMILES IDX 15 1 2 2 1 3 3 4 4 5 13 6 5 7 12 8 14 9 6 10 11 11 7 12
REMARK SMILES IDX 10 13 8 14 9 15 16 16 17 18 18 19 19 20 22 21 20 22 21 23
REMARK SMILES IDX 23 24 24 25 29 26 25 27 28 28 30 29 26 30 27 31
REMARK H PARENT 16 17
REMARK Flexibility Score: inf
ROOT
ATOM      1  C   UNL     1      -1.040  -1.160   0.447  1.00  0.00     0.132 C 
ENDROOT
BRANCH   1   2
ATOM      2  C   UNL     1       0.136  -1.881  -0.336  1.00  0.00     0.127 C 
ATOM      3  C   UNL     1      -0.202  -2.344  -1.761  1.00  0.00     0.035 C 
BRANCH   2   4
ATOM      4  N   UNL     1       1.428  -1.152  -0.250  1.00  0.00    -0.293 N 
ATOM      5  C   UNL     1       2.218  -1.352   0.864  1.00  0.00     0.203 C 
ATOM      6  C   UNL     1       1.765  -0.169  -1.173  1.00  0.00     0.261 C 
ATOM      7  N   UNL     1       3.333  -0.749   1.112  1.00  0.00    -0.238 NA
ATOM      8  C   UNL     1       3.032   0.549  -0.937  1.00  0.00     0.066 A 
ATOM      9  O   UNL     1       1.086   0.136  -2.149  1.00  0.00    -0.269 OA
ATOM     10  C   UNL     1       3.767   0.219   0.201  1.00  0.00     0.079 A 
ATOM     11  C   UNL     1       3.481   1.535  -1.825  1.00  0.00     0.017 A 
ATOM     12  C   UNL     1       4.970   0.884   0.448  1.00  0.00     0.049 A 
ATOM     13  C   UNL     1       4.683   2.194  -1.571  1.00  0.00     0.021 A 
ATOM     14  C   UNL     1       5.423   1.865  -0.435  1.00  0.00     0.043 A 
ATOM     15  Cl  UNL     1       6.907   2.678  -0.121  1.00  0.00    -0.084 Cl
ENDBRANCH   2   4
ENDBRANCH   1   2
BRANCH   1  16
ATOM     16  O   UNL     1      -0.668  -1.292   1.840  1.00  0.00    -0.381 OA
ATOM     17  H   UNL     1      -1.401  -0.908   2.372  1.00  0.00     0.212 HD
ENDBRANCH   1  16
BRANCH   1  18
ATOM     18  C   UNL     1      -2.365  -1.967   0.293  1.00  0.00     0.188 C 
BRANCH  18  19
ATOM     19  N   UNL     1      -3.495  -1.396   1.006  1.00  0.00    -0.250 N 
ATOM     20  C   UNL     1      -4.746  -1.157   0.532  1.00  0.00     0.219 A 
ATOM     21  N   UNL     1      -3.391  -1.038   2.302  1.00  0.00    -0.160 NA
ATOM     22  N   UNL     1      -5.482  -0.636   1.485  1.00  0.00    -0.224 NA
ATOM     23  C   UNL     1      -4.623  -0.580   2.545  1.00  0.00     0.246 A 
ENDBRANCH  18  19
ENDBRANCH   1  18
BRANCH   1  24
ATOM     24  C   UNL     1      -1.199   0.319   0.067  1.00  0.00     0.023 A 
ATOM     25  C   UNL     1      -1.929   0.708  -1.076  1.00  0.00     0.013 A 
ATOM     26  C   UNL     1      -0.601   1.346   0.822  1.00  0.00     0.132 A 
ATOM     27  C   UNL     1      -2.063   2.056  -1.422  1.00  0.00     0.040 A 
ATOM     28  C   UNL     1      -0.730   2.689   0.481  1.00  0.00     0.078 A 
ATOM     29  F   UNL     1       0.140   1.059   1.901  1.00  0.00    -0.206 F 
ATOM     30  C   UNL     1      -1.465   3.033  -0.639  1.00  0.00     0.126 A 
ATOM     31  F   UNL     1      -1.593   4.322  -0.978  1.00  0.00    -0.207 F 
ENDBRANCH   1  24
TORSDOF 6
