REMARK SMILES O=C1Nc2ccc(Cl)cc2C(c2ccccc2)=NC1O
REMARK SMILES IDX 11 1 18 2 10 3 4 4 5 5 6 6 9 7 7 8 8 9 3 10 1 11 2 12 12 15
REMARK SMILES IDX 13 16 17 17 14 18 16 19 15 20 19 21 20 23
REMARK H PARENT 3 14 20 24
REMARK Flexibility Score: 90.00
ROOT
ATOM      1  C   UNL     1       0.225  -0.561  -0.479  1.00  0.00     0.078 C 
ATOM      2  N   UNL     1       0.098  -1.660  -1.142  1.00  0.00    -0.243 NA
ENDROOT
BRANCH   1   3
ATOM      3  C   UNL     1      -0.904   0.299  -0.007  1.00  0.00     0.026 A 
ATOM      4  C   UNL     1      -2.030  -0.233   0.640  1.00  0.00     0.050 A 
ATOM      5  C   UNL     1      -2.946   0.637   1.249  1.00  0.00     0.028 A 
ATOM      6  C   UNL     1      -2.791   2.020   1.144  1.00  0.00     0.023 A 
ATOM      7  C   UNL     1      -0.767   1.693  -0.132  1.00  0.00     0.033 A 
ATOM      8  C   UNL     1      -1.711   2.542   0.439  1.00  0.00     0.041 A 
ATOM      9  Cl  UNL     1      -1.525   4.245   0.298  1.00  0.00    -0.084 Cl
BRANCH   4  10
ATOM     10  N   UNL     1      -2.310  -1.602   0.741  1.00  0.00    -0.321 N 
ATOM     11  O   UNL     1      -2.271  -3.751   0.100  1.00  0.00    -0.269 OA
ATOM     12  C   UNL     1      -1.951  -2.584  -0.147  1.00  0.00     0.276 CG0
ATOM     13  G   UNL     1      -1.229  -2.174  -1.455  1.00  0.00     0.000 G0
ATOM     14  H   UNL     1      -2.985  -1.924   1.423  1.00  0.00     0.170 HD
ENDBRANCH   4  10
ENDBRANCH   1   3
BRANCH   1  15
ATOM     15  C   UNL     1       1.625  -0.130  -0.161  1.00  0.00     0.000 A 
ATOM     16  C   UNL     1       2.630  -0.322  -1.117  1.00  0.00     0.010 A 
ATOM     17  C   UNL     1       1.947   0.427   1.083  1.00  0.00     0.010 A 
ATOM     18  C   UNL     1       3.941   0.070  -0.843  1.00  0.00     0.001 A 
ATOM     19  C   UNL     1       3.260   0.818   1.353  1.00  0.00     0.001 A 
ATOM     20  C   UNL     1       4.253   0.644   0.390  1.00  0.00     0.000 A 
ENDBRANCH   1  15
BRANCH   2  21
ATOM     21  C   UNL     1      -1.229  -2.174  -1.455  1.00  0.00     0.323 CG0
ATOM     22  G   UNL     1      -1.951  -2.584  -0.147  1.00  0.00     0.000 G0
BRANCH  21  23
ATOM     23  O   UNL     1      -1.990  -1.328  -2.296  1.00  0.00    -0.364 OA
ATOM     24  H   UNL     1      -1.326  -0.954  -2.897  1.00  0.00     0.213 HD
ENDBRANCH  21  23
ENDBRANCH   2  21
TORSDOF 2
