REMARK SMILES CC(NN)c1ccccc1
REMARK SMILES IDX 1 1 2 2 3 3 4 5 5 8 6 9 10 10 7 11 9 12 8 13
REMARK H PARENT 3 4 4 6 4 7
REMARK Flexibility Score: inf
ROOT
ATOM      1  C   UNL     1      -1.640  -1.864   0.312  1.00  0.00     0.031 C 
ATOM      2  C   UNL     1      -1.217  -0.586  -0.421  1.00  0.00     0.096 C 
ENDROOT
BRANCH   2   3
ATOM      3  N   UNL     1      -2.170   0.491  -0.073  1.00  0.00    -0.253 NA
ATOM      4  H   UNL     1      -2.013   0.772   0.898  1.00  0.00     0.142 HD
BRANCH   3   5
ATOM      5  N   UNL     1      -2.052   1.595  -1.004  1.00  0.00    -0.271 NA
ATOM      6  H   UNL     1      -2.789   2.287  -0.852  1.00  0.00     0.137 HD
ATOM      7  H   UNL     1      -1.162   2.092  -0.891  1.00  0.00     0.137 HD
ENDBRANCH   3   5
ENDBRANCH   2   3
BRANCH   2   8
ATOM      8  C   UNL     1       0.226  -0.202  -0.111  1.00  0.00    -0.030 A 
ATOM      9  C   UNL     1       0.697  -0.071   1.205  1.00  0.00     0.005 A 
ATOM     10  C   UNL     1       1.114   0.058  -1.168  1.00  0.00     0.005 A 
ATOM     11  C   UNL     1       2.021   0.297   1.455  1.00  0.00     0.000 A 
ATOM     12  C   UNL     1       2.437   0.426  -0.916  1.00  0.00     0.000 A 
ATOM     13  C   UNL     1       2.891   0.544   0.395  1.00  0.00     0.000 A 
ENDBRANCH   2   8
TORSDOF 3
