REMARK SMILES O=C(O)CSc1nnc(Br)n1-c1ccc(C2CC2)c2ccccc12
REMARK SMILES IDX 5 1 4 2 2 3 1 4 3 5 6 7 7 8 11 9 8 10 9 11 10 12 12 13 13 14
REMARK SMILES IDX 24 15 14 16 19 17 23 18 15 19 20 20 22 21 21 22 16 23 17 24
REMARK SMILES IDX 18 25
REMARK H PARENT 3 6
REMARK Flexibility Score: inf
ROOT
ATOM      1  S   UNL     1       2.869  -1.056   2.417  1.00  0.00    -0.074 SA
ENDROOT
BRANCH   1   2
ATOM      2  C   UNL     1       3.193   0.633   1.842  1.00  0.00     0.200 C 
BRANCH   2   3
ATOM      3  C   UNL     1       4.269   0.672   0.791  1.00  0.00     0.313 C 
ATOM      4  O   UNL     1       4.081   0.748  -0.414  1.00  0.00    -0.251 OA
BRANCH   3   5
ATOM      5  O   UNL     1       5.516   0.590   1.292  1.00  0.00    -0.481 OA
ATOM      6  H   UNL     1       6.097   0.527   0.504  1.00  0.00     0.296 HD
ENDBRANCH   3   5
ENDBRANCH   2   3
ENDBRANCH   1   2
BRANCH   1   7
ATOM      7  C   UNL     1       2.667  -1.895   0.913  1.00  0.00     0.197 A 
ATOM      8  N   UNL     1       3.573  -2.690   0.391  1.00  0.00    -0.122 NA
ATOM      9  N   UNL     1       1.602  -1.747   0.048  1.00  0.00    -0.264 N 
ATOM     10  N   UNL     1       3.107  -3.104  -0.833  1.00  0.00    -0.121 NA
ATOM     11  C   UNL     1       1.928  -2.552  -1.026  1.00  0.00     0.205 A 
ATOM     12  Br  UNL     1       0.836  -2.983  -2.536  1.00  0.00    -0.005 Br
BRANCH   9  13
ATOM     13  C   UNL     1       0.396  -1.036   0.249  1.00  0.00     0.058 A 
ATOM     14  C   UNL     1      -0.387  -1.408   1.343  1.00  0.00     0.028 A 
ATOM     15  C   UNL     1      -0.008  -0.002  -0.636  1.00  0.00     0.006 A 
ATOM     16  C   UNL     1      -1.618  -0.798   1.541  1.00  0.00     0.007 A 
ATOM     17  C   UNL     1      -1.278   0.605  -0.420  1.00  0.00    -0.013 A 
ATOM     18  C   UNL     1       0.804   0.500  -1.688  1.00  0.00     0.011 A 
ATOM     19  C   UNL     1      -2.108   0.187   0.664  1.00  0.00    -0.037 A 
ATOM     20  C   UNL     1      -1.678   1.642  -1.292  1.00  0.00     0.009 A 
ATOM     21  C   UNL     1       0.376   1.525  -2.529  1.00  0.00     0.001 A 
ATOM     22  C   UNL     1      -0.870   2.093  -2.336  1.00  0.00     0.001 A 
BRANCH  19  23
ATOM     23  C   UNL     1      -3.477   0.797   0.935  1.00  0.00     0.020 C 
ATOM     24  C   UNL     1      -4.651  -0.075   1.327  1.00  0.00     0.009 C 
ATOM     25  C   UNL     1      -4.615   0.549  -0.032  1.00  0.00     0.009 C 
ENDBRANCH  19  23
ENDBRANCH   9  13
ENDBRANCH   1   7
TORSDOF 6
