REMARK SMILES Cc1cc(/C=C/C#N)cc(C)c1Nc1ccnc(Nc2ccc(C#N)cc2)n1
REMARK SMILES IDX 14 1 15 2 16 3 17 4 18 5 28 6 13 7 12 9 1 10 2 11 3 12 4 13
REMARK SMILES IDX 10 14 9 15 11 16 5 17 6 18 7 19 8 20 19 21 20 23 21 24 27 25
REMARK SMILES IDX 22 26 26 27 23 28 24 29 25 30
REMARK H PARENT 13 8 19 22
REMARK Flexibility Score: inf
ROOT
ATOM      1  C   UNL     1      -0.272  -1.279  -0.261  1.00  0.00     0.135 A 
ATOM      2  C   UNL     1       0.346  -2.180  -1.099  1.00  0.00     0.067 A 
ATOM      3  C   UNL     1      -0.420  -2.664  -2.125  1.00  0.00     0.119 A 
ATOM      4  N   UNL     1      -1.700  -2.305  -2.323  1.00  0.00    -0.221 NA
ATOM      5  C   UNL     1      -2.234  -1.434  -1.453  1.00  0.00     0.229 A 
ATOM      6  N   UNL     1      -1.553  -0.911  -0.423  1.00  0.00    -0.195 NA
ENDROOT
BRANCH   1   7
ATOM      7  N   UNL     1       0.407  -0.716   0.839  1.00  0.00    -0.340 N 
ATOM      8  H   UNL     1      -0.224  -0.002   1.197  1.00  0.00     0.168 HD
BRANCH   7   9
ATOM      9  C   UNL     1       1.741  -0.239   0.791  1.00  0.00     0.046 A 
ATOM     10  C   UNL     1       2.377  -2.096   2.399  1.00  0.00     0.046 C 
ATOM     11  C   UNL     1       2.729  -0.906   1.546  1.00  0.00    -0.027 A 
ATOM     12  C   UNL     1       4.060  -0.459   1.502  1.00  0.00     0.013 A 
ATOM     13  C   UNL     1       4.427   0.639   0.717  1.00  0.00    -0.024 A 
ATOM     14  C   UNL     1       2.093   0.896   0.031  1.00  0.00    -0.027 A 
ATOM     15  C   UNL     1       3.435   1.315  -0.002  1.00  0.00     0.013 A 
ATOM     16  C   UNL     1       1.080   1.662  -0.780  1.00  0.00     0.046 C 
BRANCH  13  17
ATOM     17  C   UNL     1       5.806   1.143   0.668  1.00  0.00     0.019 C 
ATOM     18  C   UNL     1       6.890   0.353   0.634  1.00  0.00     0.091 C 
BRANCH  18  19
ATOM     19  C   UNL     1       8.204   0.890   0.573  1.00  0.00     0.091 C 
ATOM     20  N   UNL     1       9.278   1.324   0.523  1.00  0.00    -0.193 NA
ENDBRANCH  18  19
ENDBRANCH  13  17
ENDBRANCH   7   9
ENDBRANCH   1   7
BRANCH   5  21
ATOM     21  N   UNL     1      -3.559  -1.096  -1.710  1.00  0.00    -0.324 N 
ATOM     22  H   UNL     1      -3.865  -1.604  -2.527  1.00  0.00     0.170 HD
BRANCH  21  23
ATOM     23  C   UNL     1      -4.508  -0.304  -1.057  1.00  0.00     0.041 A 
ATOM     24  C   UNL     1      -4.273   0.359   0.152  1.00  0.00     0.027 A 
ATOM     25  C   UNL     1      -5.765  -0.131  -1.660  1.00  0.00     0.027 A 
ATOM     26  C   UNL     1      -5.259   1.156   0.749  1.00  0.00     0.021 A 
ATOM     27  C   UNL     1      -6.756   0.664  -1.072  1.00  0.00     0.021 A 
ATOM     28  C   UNL     1      -6.504   1.310   0.138  1.00  0.00     0.052 A 
BRANCH  28  29
ATOM     29  C   UNL     1      -7.513   2.127   0.747  1.00  0.00     0.099 C 
ATOM     30  N   UNL     1      -8.330   2.788   1.238  1.00  0.00    -0.192 NA
ENDBRANCH  28  29
ENDBRANCH  21  23
ENDBRANCH   5  21
TORSDOF 7
