REMARK SMILES COc1c(OCCCN2CCOCC2)ccc2c1N=C(NC(=O)c1cnc(N)nc1)N1CCN=C21
REMARK SMILES IDX 6 1 5 2 4 3 3 4 18 5 15 6 17 7 19 8 16 9 35 10 20 11 31 12
REMARK SMILES IDX 34 13 21 14 32 15 33 16 22 17 23 19 2 20 1 21 24 22 25 23
REMARK SMILES IDX 30 24 26 25 29 26 27 27 28 28 7 31 8 32 9 33 10 34 14 35
REMARK SMILES IDX 11 36 13 37 12 38
REMARK H PARENT 21 18 28 29 28 30
REMARK Flexibility Score: inf
ROOT
ATOM      1  C   UNL     1       3.460  -0.530   0.461  1.00  0.00     0.231 C 
ENDROOT
BRANCH   1   2
ATOM      2  O   UNL     1       2.145  -0.843  -0.004  1.00  0.00    -0.490 OA
BRANCH   2   3
ATOM      3  C   UNL     1       1.145   0.047   0.290  1.00  0.00     0.163 A 
ATOM      4  C   UNL     1      -0.172  -0.390   0.036  1.00  0.00     0.187 A 
ATOM      5  C   UNL     1      -1.284   0.423   0.315  1.00  0.00     0.124 A 
ATOM      6  C   UNL     1       1.352   1.336   0.793  1.00  0.00     0.051 A 
ATOM      7  C   UNL     1      -1.030   1.707   0.823  1.00  0.00     0.047 A 
ATOM      8  N   UNL     1      -2.602  -0.062   0.078  1.00  0.00    -0.210 NA
ATOM      9  C   UNL     1       0.265   2.171   1.059  1.00  0.00     0.018 A 
ATOM     10  C   UNL     1      -2.210   2.538   1.092  1.00  0.00     0.140 C 
ATOM     11  C   UNL     1      -3.611   0.715   0.355  1.00  0.00     0.212 C 
ATOM     12  N   UNL     1      -3.442   1.985   0.841  1.00  0.00    -0.294 N 
ATOM     13  N   UNL     1      -2.151   3.759   1.554  1.00  0.00    -0.266 NA
ATOM     14  N   UNL     1      -4.801   0.068   0.076  1.00  0.00    -0.292 N 
ATOM     15  C   UNL     1      -4.438   2.954   1.221  1.00  0.00     0.151 C 
ATOM     16  C   UNL     1      -3.582   4.163   1.634  1.00  0.00     0.166 C 
ATOM     17  C   UNL     1      -6.146   0.397   0.195  1.00  0.00     0.261 C 
ATOM     18  H   UNL     1      -4.572  -0.861  -0.253  1.00  0.00     0.173 HD
ATOM     19  O   UNL     1      -6.602   1.387   0.751  1.00  0.00    -0.269 OA
BRANCH   4  20
ATOM     20  O   UNL     1      -0.380  -1.673  -0.428  1.00  0.00    -0.491 OA
ATOM     21  C   UNL     1      -0.360  -1.676  -1.855  1.00  0.00     0.278 C 
ENDBRANCH   4  20
BRANCH  17  22
ATOM     22  C   UNL     1      -7.100  -0.582  -0.361  1.00  0.00     0.077 A 
ATOM     23  C   UNL     1      -8.374  -0.684   0.151  1.00  0.00     0.130 A 
ATOM     24  C   UNL     1      -6.837  -1.412  -1.426  1.00  0.00     0.130 A 
ATOM     25  N   UNL     1      -9.299  -1.555  -0.313  1.00  0.00    -0.221 NA
ATOM     26  N   UNL     1      -7.730  -2.298  -1.921  1.00  0.00    -0.221 NA
ATOM     27  C   UNL     1      -8.926  -2.344  -1.324  1.00  0.00     0.219 A 
BRANCH  27  28
ATOM     28  N   UNL     1      -9.852  -3.238  -1.812  1.00  0.00    -0.368 N 
ATOM     29  H   UNL     1     -10.787  -2.928  -1.591  1.00  0.00     0.159 HD
ATOM     30  H   UNL     1      -9.649  -3.466  -2.774  1.00  0.00     0.159 HD
ENDBRANCH  27  28
ENDBRANCH  17  22
ENDBRANCH   2   3
ENDBRANCH   1   2
BRANCH   1  31
ATOM     31  C   UNL     1       4.358  -1.726   0.152  1.00  0.00     0.057 C 
BRANCH  31  32
ATOM     32  C   UNL     1       5.768  -1.576   0.731  1.00  0.00     0.088 C 
BRANCH  32  33
ATOM     33  N   UNL     1       6.462  -0.360   0.290  1.00  0.00    -0.299 NA
ATOM     34  C   UNL     1       7.618  -0.073   1.170  1.00  0.00     0.113 C 
ATOM     35  C   UNL     1       6.888  -0.404  -1.127  1.00  0.00     0.113 C 
ATOM     36  C   UNL     1       8.625   0.868   0.494  1.00  0.00     0.175 C 
ATOM     37  C   UNL     1       8.389  -0.678  -1.316  1.00  0.00     0.175 C 
ATOM     38  O   UNL     1       9.228   0.288  -0.670  1.00  0.00    -0.379 OA
ENDBRANCH  32  33
ENDBRANCH  31  32
ENDBRANCH   1  31
TORSDOF 8
