REMARK SMILES OC(CCN1CCCCC1)(c1ccccc1)C1CCCC1
REMARK SMILES IDX 3 1 2 2 1 3 11 5 12 6 16 7 13 8 15 9 14 10 17 11 18 12 21 13
REMARK SMILES IDX 19 14 20 15 4 16 5 17 6 18 10 19 7 20 9 21 8 22
REMARK H PARENT 1 4
REMARK Flexibility Score: inf
ROOT
ATOM      1  C   UNL     1       0.118   0.061   0.694  1.00  0.00     0.056 C 
ENDROOT
BRANCH   1   2
ATOM      2  C   UNL     1      -1.242   0.792   0.499  1.00  0.00     0.094 C 
BRANCH   2   3
ATOM      3  O   UNL     1      -0.938   2.199   0.445  1.00  0.00    -0.385 OA
ATOM      4  H   UNL     1      -0.659   2.459   1.341  1.00  0.00     0.211 HD
ENDBRANCH   2   3
BRANCH   2   5
ATOM      5  C   UNL     1      -2.182   0.588   1.708  1.00  0.00    -0.016 A 
ATOM      6  C   UNL     1      -3.146   1.570   2.018  1.00  0.00     0.007 A 
ATOM      7  C   UNL     1      -2.156  -0.568   2.507  1.00  0.00     0.007 A 
ATOM      8  C   UNL     1      -4.025   1.416   3.093  1.00  0.00     0.000 A 
ATOM      9  C   UNL     1      -3.036  -0.722   3.583  1.00  0.00     0.000 A 
ATOM     10  C   UNL     1      -3.967   0.270   3.878  1.00  0.00     0.000 A 
ENDBRANCH   2   5
BRANCH   2  11
ATOM     11  C   UNL     1      -2.026   0.433  -0.798  1.00  0.00     0.025 C 
ATOM     12  C   UNL     1      -1.573   1.119  -2.104  1.00  0.00     0.007 C 
ATOM     13  C   UNL     1      -2.120  -1.057  -1.145  1.00  0.00     0.007 C 
ATOM     14  C   UNL     1      -1.710   0.067  -3.205  1.00  0.00     0.000 C 
ATOM     15  C   UNL     1      -2.558  -1.042  -2.601  1.00  0.00     0.000 C 
ENDBRANCH   2  11
ENDBRANCH   1   2
BRANCH   1  16
ATOM     16  C   UNL     1       1.187   0.351  -0.370  1.00  0.00     0.088 C 
BRANCH  16  17
ATOM     17  N   UNL     1       2.509  -0.211  -0.013  1.00  0.00    -0.303 NA
ATOM     18  C   UNL     1       2.532  -1.680  -0.124  1.00  0.00     0.084 C 
ATOM     19  C   UNL     1       3.548   0.387  -0.872  1.00  0.00     0.084 C 
ATOM     20  C   UNL     1       3.897  -2.251   0.266  1.00  0.00     0.016 C 
ATOM     21  C   UNL     1       4.944  -0.116  -0.502  1.00  0.00     0.016 C 
ATOM     22  C   UNL     1       5.017  -1.636  -0.563  1.00  0.00     0.003 C 
ENDBRANCH  16  17
ENDBRANCH   1  16
TORSDOF 6
