REMARK SMILES Cc1nc(C(=O)NCC(=O)O)c(O)c2ccc(Oc3ccccc3)cc12
REMARK SMILES IDX 5 1 6 2 7 3 4 5 1 6 2 7 3 8 26 9 14 10 25 11 12 12 15 13
REMARK SMILES IDX 17 14 16 15 13 16 18 18 19 19 20 20 24 21 21 22 23 23 22 24
REMARK SMILES IDX 8 25 9 26 10 27 11 28
REMARK H PARENT 7 4 13 17 11 29
REMARK Flexibility Score: inf
ROOT
ATOM      1  C   UNL     1       3.684  -1.494   0.350  1.00  0.00     0.274 C 
ATOM      2  O   UNL     1       4.105  -2.574  -0.053  1.00  0.00    -0.267 OA
ATOM      3  N   UNL     1       4.485  -0.489   0.835  1.00  0.00    -0.340 N 
ATOM      4  H   UNL     1       4.030   0.371   1.143  1.00  0.00     0.164 HD
ENDROOT
BRANCH   1   5
ATOM      5  C   UNL     1       2.218  -1.187   0.333  1.00  0.00     0.170 A 
ATOM      6  C   UNL     1       0.244   1.757   1.269  1.00  0.00     0.067 C 
ATOM      7  C   UNL     1       0.562   0.375   0.769  1.00  0.00     0.046 A 
ATOM      8  N   UNL     1       1.879   0.051   0.783  1.00  0.00    -0.244 NA
ATOM      9  C   UNL     1      -0.452  -0.502   0.316  1.00  0.00     0.010 A 
ATOM     10  C   UNL     1      -0.061  -1.787  -0.139  1.00  0.00     0.028 A 
ATOM     11  C   UNL     1      -1.826  -0.166   0.290  1.00  0.00     0.057 A 
ATOM     12  C   UNL     1       1.301  -2.129  -0.129  1.00  0.00     0.154 A 
ATOM     13  C   UNL     1      -1.052  -2.687  -0.590  1.00  0.00     0.016 A 
ATOM     14  C   UNL     1      -2.782  -1.067  -0.188  1.00  0.00     0.128 A 
ATOM     15  C   UNL     1      -2.401  -2.334  -0.607  1.00  0.00     0.048 A 
BRANCH  12  16
ATOM     16  O   UNL     1       1.675  -3.373  -0.578  1.00  0.00    -0.505 OA
ATOM     17  H   UNL     1       2.655  -3.449  -0.517  1.00  0.00     0.293 HD
ENDBRANCH  12  16
BRANCH  14  18
ATOM     18  O   UNL     1      -4.126  -0.773  -0.206  1.00  0.00    -0.457 OA
BRANCH  18  19
ATOM     19  C   UNL     1      -4.502   0.410  -0.803  1.00  0.00     0.127 A 
ATOM     20  C   UNL     1      -5.488   1.156  -0.156  1.00  0.00     0.047 A 
ATOM     21  C   UNL     1      -3.992   0.838  -2.032  1.00  0.00     0.047 A 
ATOM     22  C   UNL     1      -5.938   2.351  -0.718  1.00  0.00     0.004 A 
ATOM     23  C   UNL     1      -4.443   2.035  -2.591  1.00  0.00     0.004 A 
ATOM     24  C   UNL     1      -5.414   2.791  -1.933  1.00  0.00     0.000 A 
ENDBRANCH  18  19
ENDBRANCH  14  18
ENDBRANCH   1   5
BRANCH   3  25
ATOM     25  C   UNL     1       5.926  -0.606   0.902  1.00  0.00     0.238 C 
BRANCH  25  26
ATOM     26  C   UNL     1       6.533   0.621   1.555  1.00  0.00     0.322 C 
ATOM     27  O   UNL     1       5.928   1.587   1.997  1.00  0.00    -0.250 OA
BRANCH  26  28
ATOM     28  O   UNL     1       7.878   0.568   1.619  1.00  0.00    -0.480 OA
ATOM     29  H   UNL     1       8.133   1.414   2.045  1.00  0.00     0.296 HD
ENDBRANCH  26  28
ENDBRANCH  25  26
ENDBRANCH   3  25
TORSDOF 7
