REMARK SMILES NC(=O)C(c1ccccc1)(c1ccccc1)[C@@H]1CCN(CCc2ccc3c(c2)CCO3)C1
REMARK SMILES IDX 17 1 18 2 19 3 20 4 32 5 4 6 2 7 1 8 3 11 5 12 6 13 10 14
REMARK SMILES IDX 7 15 9 16 8 17 11 18 12 19 16 20 13 21 15 22 14 23 21 24
REMARK SMILES IDX 22 25 23 26 24 27 28 28 25 29 27 30 26 31 29 32 31 33 30 34
REMARK H PARENT 1 9 1 10
REMARK Flexibility Score: inf
ROOT
ATOM      1  C   UNL     1      -1.144  -0.209  -0.041  1.00  0.00     0.029 C 
ATOM      2  C   UNL     1      -0.201   1.003  -0.025  1.00  0.00     0.022 C 
ATOM      3  C   UNL     1       1.199   0.414  -0.244  1.00  0.00     0.085 C 
ATOM      4  N   UNL     1       1.003  -1.036  -0.417  1.00  0.00    -0.303 NA
ATOM      5  C   UNL     1      -0.366  -1.175  -0.934  1.00  0.00     0.090 C 
ENDROOT
BRANCH   1   6
ATOM      6  C   UNL     1      -2.663   0.069  -0.424  1.00  0.00     0.103 C 
BRANCH   6   7
ATOM      7  C   UNL     1      -2.621   0.509  -1.943  1.00  0.00     0.232 C 
ATOM      8  N   UNL     1      -2.673  -0.479  -2.898  1.00  0.00    -0.369 N 
ATOM      9  H   UNL     1      -2.608  -1.458  -2.655  1.00  0.00     0.159 HD
ATOM     10  H   UNL     1      -2.404  -0.194  -3.834  1.00  0.00     0.159 HD
ATOM     11  O   UNL     1      -2.475   1.664  -2.348  1.00  0.00    -0.274 OA
ENDBRANCH   6   7
BRANCH   6  12
ATOM     12  C   UNL     1      -3.275   1.180   0.494  1.00  0.00    -0.028 A 
ATOM     13  C   UNL     1      -2.968   1.247   1.871  1.00  0.00     0.005 A 
ATOM     14  C   UNL     1      -4.221   2.104   0.010  1.00  0.00     0.005 A 
ATOM     15  C   UNL     1      -3.530   2.224   2.700  1.00  0.00     0.000 A 
ATOM     16  C   UNL     1      -4.788   3.079   0.842  1.00  0.00     0.000 A 
ATOM     17  C   UNL     1      -4.434   3.145   2.185  1.00  0.00     0.000 A 
ENDBRANCH   6  12
BRANCH   6  18
ATOM     18  C   UNL     1      -3.578  -1.198  -0.241  1.00  0.00    -0.028 A 
ATOM     19  C   UNL     1      -3.253  -2.255   0.629  1.00  0.00     0.005 A 
ATOM     20  C   UNL     1      -4.829  -1.267  -0.895  1.00  0.00     0.005 A 
ATOM     21  C   UNL     1      -4.112  -3.350   0.800  1.00  0.00     0.000 A 
ATOM     22  C   UNL     1      -5.680  -2.366  -0.734  1.00  0.00     0.000 A 
ATOM     23  C   UNL     1      -5.318  -3.410   0.111  1.00  0.00     0.000 A 
ENDBRANCH   6  18
ENDBRANCH   1   6
BRANCH   4  24
ATOM     24  C   UNL     1       1.987  -1.652  -1.318  1.00  0.00     0.089 C 
BRANCH  24  25
ATOM     25  C   UNL     1       3.345  -1.971  -0.671  1.00  0.00     0.051 C 
BRANCH  25  26
ATOM     26  C   UNL     1       4.263  -0.799  -0.421  1.00  0.00    -0.046 A 
ATOM     27  C   UNL     1       4.745  -0.014  -1.496  1.00  0.00     0.007 A 
ATOM     28  C   UNL     1       4.670  -0.497   0.890  1.00  0.00     0.011 A 
ATOM     29  C   UNL     1       5.608   1.063  -1.274  1.00  0.00     0.047 A 
ATOM     30  C   UNL     1       5.535   0.563   1.089  1.00  0.00    -0.002 A 
ATOM     31  C   UNL     1       5.990   1.324   0.023  1.00  0.00     0.122 A 
ATOM     32  C   UNL     1       6.063   1.126   2.351  1.00  0.00     0.081 C 
ATOM     33  O   UNL     1       6.827   2.344   0.392  1.00  0.00    -0.493 OA
ATOM     34  C   UNL     1       7.137   2.047   1.771  1.00  0.00     0.234 C 
ENDBRANCH  25  26
ENDBRANCH  24  25
ENDBRANCH   4  24
TORSDOF 7
