REMARK SMILES Cc1cc(C(=O)NNCc2ccccc2)no1
REMARK SMILES IDX 8 1 7 3 5 4 6 5 4 7 1 8 2 9 3 10 17 11 16 12 9 13 10 14
REMARK SMILES IDX 11 15 15 16 12 17 14 18 13 19
REMARK H PARENT 8 2 7 6
REMARK Flexibility Score: inf
ROOT
ATOM      1  N   UNL     1      -0.615  -0.642   0.197  1.00  0.00    -0.230 NA
ATOM      2  H   UNL     1      -0.848  -1.151   1.051  1.00  0.00     0.148 HD
ENDROOT
BRANCH   1   3
ATOM      3  N   UNL     1       0.777  -0.378   0.140  1.00  0.00    -0.286 N 
ATOM      4  C   UNL     1       1.398  -0.137  -1.096  1.00  0.00     0.287 C 
ATOM      5  O   UNL     1       0.772   0.017  -2.143  1.00  0.00    -0.266 OA
ATOM      6  H   UNL     1       1.350  -0.691   0.916  1.00  0.00     0.185 HD
BRANCH   4   7
ATOM      7  C   UNL     1       2.868  -0.070  -1.031  1.00  0.00     0.172 A 
ATOM      8  C   UNL     1       6.343   0.140   0.177  1.00  0.00     0.091 C 
ATOM      9  C   UNL     1       4.994   0.052  -0.407  1.00  0.00     0.134 A 
ATOM     10  C   UNL     1       3.722   0.008   0.108  1.00  0.00     0.082 A 
ATOM     11  O   UNL     1       4.925   0.008  -1.761  1.00  0.00    -0.361 OA
ATOM     12  N   UNL     1       3.606  -0.062  -2.155  1.00  0.00    -0.074 NA
ENDBRANCH   4   7
ENDBRANCH   1   3
BRANCH   1  13
ATOM     13  C   UNL     1      -1.407   0.594   0.156  1.00  0.00     0.140 C 
BRANCH  13  14
ATOM     14  C   UNL     1      -2.876   0.293   0.340  1.00  0.00    -0.032 A 
ATOM     15  C   UNL     1      -3.601  -0.326  -0.690  1.00  0.00     0.005 A 
ATOM     16  C   UNL     1      -3.532   0.603   1.539  1.00  0.00     0.005 A 
ATOM     17  C   UNL     1      -4.955  -0.620  -0.526  1.00  0.00     0.000 A 
ATOM     18  C   UNL     1      -4.887   0.309   1.701  1.00  0.00     0.000 A 
ATOM     19  C   UNL     1      -5.597  -0.302   0.668  1.00  0.00     0.000 A 
ENDBRANCH  13  14
ENDBRANCH   1  13
TORSDOF 4
