REMARK SMILES CC(C)NC(=O)COc1cccc(-c2nc(Nc3ccc4[nH]ncc4c3)c3ccccc3n2)c1
REMARK SMILES IDX 9 1 10 2 11 3 12 4 13 5 34 6 8 7 7 8 5 9 4 10 6 12 2 13 1 14
REMARK SMILES IDX 3 15 14 16 33 17 15 18 32 19 16 20 27 21 31 22 28 23 30 24
REMARK SMILES IDX 29 25 17 26 18 28 19 29 26 30 20 31 25 32 21 33 24 34 22 35
REMARK SMILES IDX 23 36
REMARK H PARENT 4 11 17 27 22 37
REMARK Flexibility Score: inf
ROOT
ATOM      1  C   UNL     1       2.045  -0.966   0.862  1.00  0.00     0.120 A 
ATOM      2  C   UNL     1       2.419  -0.467  -0.383  1.00  0.00     0.046 A 
ATOM      3  C   UNL     1       1.545   0.356  -1.092  1.00  0.00     0.005 A 
ATOM      4  C   UNL     1       0.293   0.677  -0.561  1.00  0.00     0.012 A 
ATOM      5  C   UNL     1      -0.124   0.177   0.687  1.00  0.00     0.023 A 
ATOM      6  C   UNL     1       0.781  -0.653   1.377  1.00  0.00     0.058 A 
ENDROOT
BRANCH   1   7
ATOM      7  O   UNL     1       2.801  -1.785   1.655  1.00  0.00    -0.484 OA
BRANCH   7   8
ATOM      8  C   UNL     1       4.203  -1.781   1.445  1.00  0.00     0.329 C 
BRANCH   8   9
ATOM      9  C   UNL     1       4.738  -2.760   0.391  1.00  0.00     0.258 C 
ATOM     10  N   UNL     1       6.108  -2.663   0.205  1.00  0.00    -0.351 N 
ATOM     11  H   UNL     1       6.649  -2.161   0.898  1.00  0.00     0.163 HD
ATOM     12  O   UNL     1       4.034  -3.542  -0.240  1.00  0.00    -0.271 OA
BRANCH  10  13
ATOM     13  C   UNL     1       6.821  -3.577  -0.678  1.00  0.00     0.075 C 
ATOM     14  C   UNL     1       7.112  -4.896   0.034  1.00  0.00     0.030 C 
ATOM     15  C   UNL     1       8.113  -2.929  -1.165  1.00  0.00     0.030 C 
ENDBRANCH  10  13
ENDBRANCH   8   9
ENDBRANCH   7   8
ENDBRANCH   1   7
BRANCH   5  16
ATOM     16  C   UNL     1      -1.451   0.508   1.245  1.00  0.00     0.162 A 
ATOM     17  N   UNL     1      -1.746   0.066   2.477  1.00  0.00    -0.228 NA
ATOM     18  N   UNL     1      -2.279   1.242   0.486  1.00  0.00    -0.210 NA
ATOM     19  C   UNL     1      -2.951   0.362   2.969  1.00  0.00     0.076 A 
ATOM     20  C   UNL     1      -3.487   1.549   0.988  1.00  0.00     0.142 A 
ATOM     21  C   UNL     1      -3.897   1.113   2.261  1.00  0.00     0.043 A 
ATOM     22  C   UNL     1      -3.280  -0.098   4.238  1.00  0.00     0.029 A 
ATOM     23  C   UNL     1      -5.165   1.367   2.847  1.00  0.00     0.014 A 
ATOM     24  C   UNL     1      -4.524   0.161   4.821  1.00  0.00     0.002 A 
ATOM     25  C   UNL     1      -5.472   0.894   4.121  1.00  0.00     0.001 A 
BRANCH  20  26
ATOM     26  N   UNL     1      -4.373   2.354   0.219  1.00  0.00    -0.340 N 
ATOM     27  H   UNL     1      -4.644   3.157   0.776  1.00  0.00     0.168 HD
BRANCH  26  28
ATOM     28  C   UNL     1      -4.282   2.680  -1.156  1.00  0.00     0.040 A 
ATOM     29  C   UNL     1      -3.730   1.800  -2.099  1.00  0.00     0.028 A 
ATOM     30  C   UNL     1      -4.876   3.873  -1.610  1.00  0.00     0.038 A 
ATOM     31  C   UNL     1      -3.693   2.094  -3.470  1.00  0.00     0.030 A 
ATOM     32  C   UNL     1      -4.850   4.191  -2.981  1.00  0.00     0.022 A 
ATOM     33  C   UNL     1      -4.260   3.304  -3.871  1.00  0.00     0.065 A 
ATOM     34  C   UNL     1      -5.301   5.256  -3.791  1.00  0.00     0.143 A 
ATOM     35  N   UNL     1      -4.395   3.885  -5.104  1.00  0.00    -0.278 N 
ATOM     36  N   UNL     1      -5.024   5.075  -5.086  1.00  0.00    -0.183 NA
ATOM     37  H   UNL     1      -4.081   3.521  -5.996  1.00  0.00     0.190 HD
ENDBRANCH  26  28
ENDBRANCH  20  26
ENDBRANCH   5  16
TORSDOF 7
