REMARK SMILES O=C1c2c(O)cc(O)cc2O[C@H](c2cc(O)c(O)c(O)c2)[C@H]1O
REMARK SMILES IDX 22 1 12 2 11 3 10 4 3 5 4 6 6 7 7 8 9 9 2 10 1 11 23 12
REMARK SMILES IDX 13 14 14 15 21 16 15 17 19 18 17 19 16 20 20 22 18 24 5 26
REMARK SMILES IDX 8 28
REMARK H PARENT 23 13 16 21 20 23 18 25 5 27 8 29
REMARK Flexibility Score: inf
ROOT
ATOM      1  C   UNL     1       0.403  -0.760  -1.611  1.00  0.00     0.231 C 
ATOM      2  C   UNL     1      -0.214   0.141  -0.532  1.00  0.00     0.240 C 
ATOM      3  O   UNL     1       0.510   0.009   0.709  1.00  0.00    -0.481 OA
ATOM      4  C   UNL     1       1.851   0.253   0.602  1.00  0.00     0.138 A 
ATOM      5  C   UNL     1       2.572   0.101  -0.581  1.00  0.00     0.105 A 
ATOM      6  C   UNL     1       3.944   0.377  -0.604  1.00  0.00     0.133 A 
ATOM      7  C   UNL     1       4.599   0.786   0.555  1.00  0.00     0.093 A 
ATOM      8  C   UNL     1       3.873   0.910   1.736  1.00  0.00     0.123 A 
ATOM      9  C   UNL     1       2.507   0.641   1.769  1.00  0.00     0.093 A 
ATOM     10  C   UNL     1       1.862  -0.379  -1.776  1.00  0.00     0.202 C 
ATOM     11  O   UNL     1       2.463  -0.490  -2.846  1.00  0.00    -0.291 OA
ENDROOT
BRANCH   1  12
ATOM     12  O   UNL     1      -0.240  -0.588  -2.876  1.00  0.00    -0.381 OA
ATOM     13  H   UNL     1       0.370  -0.949  -3.550  1.00  0.00     0.211 HD
ENDBRANCH   1  12
BRANCH   2  14
ATOM     14  C   UNL     1      -1.674  -0.117  -0.171  1.00  0.00     0.003 A 
ATOM     15  C   UNL     1      -2.406  -1.217  -0.654  1.00  0.00     0.058 A 
ATOM     16  C   UNL     1      -2.316   0.788   0.706  1.00  0.00     0.058 A 
ATOM     17  C   UNL     1      -3.731  -1.398  -0.270  1.00  0.00     0.161 A 
ATOM     18  C   UNL     1      -3.644   0.589   1.078  1.00  0.00     0.161 A 
ATOM     19  C   UNL     1      -4.348  -0.502   0.590  1.00  0.00     0.200 A 
BRANCH  17  20
ATOM     20  O   UNL     1      -4.425  -2.473  -0.747  1.00  0.00    -0.504 OA
ATOM     21  H   UNL     1      -5.316  -2.384  -0.352  1.00  0.00     0.293 HD
ENDBRANCH  17  20
BRANCH  18  22
ATOM     22  O   UNL     1      -4.295   1.440   1.927  1.00  0.00    -0.504 OA
ATOM     23  H   UNL     1      -3.671   2.136   2.196  1.00  0.00     0.293 HD
ENDBRANCH  18  22
BRANCH  19  24
ATOM     24  O   UNL     1      -5.652  -0.709   0.948  1.00  0.00    -0.502 OA
ATOM     25  H   UNL     1      -5.855   0.040   1.546  1.00  0.00     0.293 HD
ENDBRANCH  19  24
ENDBRANCH   2  14
BRANCH   6  26
ATOM     26  O   UNL     1       4.711   0.258  -1.731  1.00  0.00    -0.507 OA
ATOM     27  H   UNL     1       4.133  -0.033  -2.473  1.00  0.00     0.293 HD
ENDBRANCH   6  26
BRANCH   8  28
ATOM     28  O   UNL     1       4.470   1.298   2.898  1.00  0.00    -0.508 OA
ATOM     29  H   UNL     1       5.419   1.435   2.735  1.00  0.00     0.293 HD
ENDBRANCH   8  28
TORSDOF 7
