REMARK SMILES Cc1cc(NC(=O)C2=C(O)c3ccccc3S(=O)(=O)N2C)no1
REMARK SMILES IDX 8 1 9 2 11 3 12 4 13 5 14 6 15 7 16 8 17 9 18 10 19 11 20 12
REMARK SMILES IDX 21 13 6 14 5 15 7 17 4 18 1 19 2 20 3 21 23 22 22 23 10 24
REMARK H PARENT 5 16 10 25
REMARK Flexibility Score: inf
ROOT
ATOM      1  C   UNL     1      -0.540   0.358  -0.096  1.00  0.00     0.159 C 
ATOM      2  C   UNL     1      -1.495  -0.060  -0.956  1.00  0.00     0.154 C 
ATOM      3  C   UNL     1      -2.923  -0.175  -0.589  1.00  0.00     0.039 A 
ATOM      4  C   UNL     1      -3.928  -0.253  -1.564  1.00  0.00     0.013 A 
ATOM      5  C   UNL     1      -5.273  -0.389  -1.201  1.00  0.00     0.001 A 
ATOM      6  C   UNL     1      -5.638  -0.452   0.143  1.00  0.00     0.001 A 
ATOM      7  C   UNL     1      -4.658  -0.383   1.129  1.00  0.00     0.023 A 
ATOM      8  C   UNL     1      -3.317  -0.259   0.750  1.00  0.00     0.099 A 
ATOM      9  S   UNL     1      -2.071  -0.114   1.979  1.00  0.00     0.265 S 
ATOM     10  O   UNL     1      -1.455  -1.409   2.175  1.00  0.00    -0.201 OA
ATOM     11  O   UNL     1      -2.621   0.642   3.084  1.00  0.00    -0.201 OA
ATOM     12  N   UNL     1      -0.945   0.872   1.185  1.00  0.00    -0.261 N 
ATOM     13  C   UNL     1      -0.029   1.625   2.056  1.00  0.00     0.164 C 
ENDROOT
BRANCH   1  14
ATOM     14  C   UNL     1       0.895   0.301  -0.517  1.00  0.00     0.278 C 
ATOM     15  N   UNL     1       1.719  -0.223   0.444  1.00  0.00    -0.302 N 
ATOM     16  H   UNL     1       1.333  -0.611   1.297  1.00  0.00     0.172 HD
ATOM     17  O   UNL     1       1.212   0.625  -1.658  1.00  0.00    -0.267 OA
BRANCH  15  18
ATOM     18  C   UNL     1       3.082  -0.374   0.326  1.00  0.00     0.176 A 
ATOM     19  C   UNL     1       6.539  -0.310  -0.900  1.00  0.00     0.091 C 
ATOM     20  C   UNL     1       5.190  -0.382  -0.315  1.00  0.00     0.135 A 
ATOM     21  C   UNL     1       3.938  -0.003  -0.734  1.00  0.00     0.095 A 
ATOM     22  O   UNL     1       5.094  -0.940   0.920  1.00  0.00    -0.360 OA
ATOM     23  N   UNL     1       3.772  -0.932   1.325  1.00  0.00    -0.062 NA
ENDBRANCH  15  18
ENDBRANCH   1  14
BRANCH   2  24
ATOM     24  O   UNL     1      -1.220  -0.456  -2.258  1.00  0.00    -0.505 OA
ATOM     25  H   UNL     1      -0.311  -0.170  -2.496  1.00  0.00     0.293 HD
ENDBRANCH   2  24
TORSDOF 3
