REMARK SMILES CC(C(=O)O)c1cccc(C(=O)c2ccccc2)c1
REMARK SMILES IDX 6 1 7 2 8 3 9 4 10 5 19 6 2 7 1 8 3 9 4 10 5 11 11 13 12 14
REMARK SMILES IDX 13 15 14 16 18 17 15 18 17 19 16 20
REMARK H PARENT 5 12
REMARK Flexibility Score: inf
ROOT
ATOM      1  C   UNL     1       1.920  -0.574  -0.019  1.00  0.00    -0.033 A 
ATOM      2  C   UNL     1       1.446  -1.640   0.762  1.00  0.00     0.004 A 
ATOM      3  C   UNL     1       0.076  -1.878   0.893  1.00  0.00     0.001 A 
ATOM      4  C   UNL     1      -0.845  -1.049   0.253  1.00  0.00     0.012 A 
ATOM      5  C   UNL     1      -0.391   0.032  -0.508  1.00  0.00     0.023 A 
ATOM      6  C   UNL     1       0.984   0.257  -0.657  1.00  0.00     0.016 A 
ENDROOT
BRANCH   1   7
ATOM      7  C   UNL     1       3.409  -0.310  -0.195  1.00  0.00     0.126 C 
ATOM      8  C   UNL     1       4.113  -1.503  -0.845  1.00  0.00     0.025 C 
BRANCH   7   9
ATOM      9  C   UNL     1       4.111   0.066   1.101  1.00  0.00     0.310 C 
ATOM     10  O   UNL     1       3.698  -0.045   2.243  1.00  0.00    -0.252 OA
BRANCH   9  11
ATOM     11  O   UNL     1       5.343   0.580   0.885  1.00  0.00    -0.481 OA
ATOM     12  H   UNL     1       5.672   0.783   1.786  1.00  0.00     0.296 HD
ENDBRANCH   9  11
ENDBRANCH   7   9
ENDBRANCH   1   7
BRANCH   5  13
ATOM     13  C   UNL     1      -1.334   0.937  -1.214  1.00  0.00     0.193 C 
ATOM     14  O   UNL     1      -1.024   1.381  -2.316  1.00  0.00    -0.289 OA
BRANCH  13  15
ATOM     15  C   UNL     1      -2.640   1.317  -0.617  1.00  0.00     0.022 A 
ATOM     16  C   UNL     1      -3.726   1.533  -1.473  1.00  0.00     0.012 A 
ATOM     17  C   UNL     1      -2.792   1.505   0.762  1.00  0.00     0.012 A 
ATOM     18  C   UNL     1      -4.966   1.902  -0.950  1.00  0.00     0.001 A 
ATOM     19  C   UNL     1      -4.035   1.874   1.281  1.00  0.00     0.001 A 
ATOM     20  C   UNL     1      -5.120   2.068   0.426  1.00  0.00     0.000 A 
ENDBRANCH  13  15
ENDBRANCH   5  13
TORSDOF 5
