REMARK SMILES CNC(=O)c1ccc(-c2cnc3ncc(Cc4ccc5ncccc5c4)n3n2)cc1F
REMARK SMILES IDX 9 1 10 2 11 3 12 4 13 5 14 6 15 7 27 8 28 9 8 10 5 11 6 12
REMARK SMILES IDX 30 13 7 14 29 15 31 16 3 17 1 18 2 19 4 21 16 22 17 23 18 24
REMARK SMILES IDX 26 25 19 26 25 27 20 28 24 29 21 30 23 31 22 32
REMARK H PARENT 2 20
REMARK Flexibility Score: inf
ROOT
ATOM      1  C   UNL     1       1.186  -1.969  -0.142  1.00  0.00     0.110 C 
ATOM      2  C   UNL     1       1.231  -3.297   0.594  1.00  0.00     0.146 C 
ATOM      3  N   UNL     1       0.270  -4.164   0.556  1.00  0.00    -0.217 NA
ATOM      4  C   UNL     1      -0.795  -3.803  -0.209  1.00  0.00     0.250 A 
ATOM      5  N   UNL     1      -1.906  -4.473  -0.436  1.00  0.00    -0.218 NA
ATOM      6  C   UNL     1      -2.655  -3.686  -1.270  1.00  0.00     0.139 A 
ATOM      7  C   UNL     1      -2.002  -2.511  -1.571  1.00  0.00     0.069 A 
ATOM      8  N   UNL     1      -0.810  -2.593  -0.899  1.00  0.00    -0.200 N 
ATOM      9  N   UNL     1       0.176  -1.649  -0.901  1.00  0.00    -0.163 NA
ENDROOT
BRANCH   1  10
ATOM     10  C   UNL     1       2.327  -1.025  -0.006  1.00  0.00     0.006 A 
ATOM     11  C   UNL     1       4.457   0.813   0.191  1.00  0.00     0.075 A 
ATOM     12  C   UNL     1       3.684   0.740  -0.977  1.00  0.00     0.017 A 
ATOM     13  C   UNL     1       4.137  -0.036   1.253  1.00  0.00     0.136 A 
ATOM     14  C   UNL     1       2.623  -0.168  -1.073  1.00  0.00     0.011 A 
ATOM     15  C   UNL     1       3.083  -0.949   1.166  1.00  0.00     0.050 A 
ATOM     16  F   UNL     1       4.829   0.002   2.402  1.00  0.00    -0.206 F 
BRANCH  11  17
ATOM     17  C   UNL     1       5.576   1.797   0.238  1.00  0.00     0.253 C 
ATOM     18  C   UNL     1       7.379   2.828   1.550  1.00  0.00     0.143 C 
ATOM     19  N   UNL     1       6.333   1.850   1.387  1.00  0.00    -0.355 N 
ATOM     20  H   UNL     1       6.058   1.304   2.195  1.00  0.00     0.163 HD
ATOM     21  O   UNL     1       5.786   2.521  -0.731  1.00  0.00    -0.269 OA
ENDBRANCH  11  17
ENDBRANCH   1  10
BRANCH   7  22
ATOM     22  C   UNL     1      -2.396  -1.352  -2.411  1.00  0.00     0.093 C 
BRANCH  22  23
ATOM     23  C   UNL     1      -3.001  -0.226  -1.603  1.00  0.00    -0.041 A 
ATOM     24  C   UNL     1      -2.219   0.858  -1.194  1.00  0.00     0.006 A 
ATOM     25  C   UNL     1      -4.348  -0.262  -1.220  1.00  0.00     0.014 A 
ATOM     26  C   UNL     1      -2.780   1.887  -0.430  1.00  0.00     0.029 A 
ATOM     27  C   UNL     1      -4.907   0.775  -0.450  1.00  0.00     0.000 A 
ATOM     28  C   UNL     1      -4.113   1.870  -0.048  1.00  0.00     0.070 A 
ATOM     29  C   UNL     1      -6.251   0.759  -0.057  1.00  0.00     0.012 A 
ATOM     30  N   UNL     1      -4.604   2.884   0.689  1.00  0.00    -0.256 NA
ATOM     31  C   UNL     1      -6.761   1.804   0.704  1.00  0.00     0.021 A 
ATOM     32  C   UNL     1      -5.905   2.833   1.047  1.00  0.00     0.112 A 
ENDBRANCH  22  23
ENDBRANCH   7  22
TORSDOF 4
