REMARK SMILES COc1cc(Nc2ncc(F)c(Nc3ccc4c(n3)NC(=O)C(C)(C)O4)n2)cc(OC)c1OC
REMARK SMILES IDX 7 1 8 2 9 3 10 4 11 5 12 6 27 7 6 8 5 10 3 11 4 12 32 13
REMARK SMILES IDX 29 14 28 15 2 16 1 17 33 18 34 19 30 20 31 21 13 22 14 24
REMARK SMILES IDX 15 25 19 26 16 27 18 28 17 29 20 30 26 31 21 32 23 34 22 35
REMARK SMILES IDX 24 36 25 37
REMARK H PARENT 6 9 13 23 20 33
REMARK Flexibility Score: inf
ROOT
ATOM      1  C   UNL     1      -1.436  -1.067   1.118  1.00  0.00     0.229 A 
ATOM      2  N   UNL     1      -2.176  -1.924   1.837  1.00  0.00    -0.218 NA
ATOM      3  C   UNL     1      -1.516  -2.792   2.628  1.00  0.00     0.158 A 
ATOM      4  C   UNL     1      -0.150  -2.832   2.719  1.00  0.00     0.184 A 
ATOM      5  F   UNL     1       0.466  -3.720   3.511  1.00  0.00    -0.201 F 
ATOM      6  C   UNL     1       0.555  -1.926   1.947  1.00  0.00     0.173 A 
ATOM      7  N   UNL     1      -0.091  -1.040   1.157  1.00  0.00    -0.192 NA
ENDROOT
BRANCH   1   8
ATOM      8  N   UNL     1      -2.010  -0.134   0.260  1.00  0.00    -0.324 N 
ATOM      9  H   UNL     1      -1.273   0.382  -0.198  1.00  0.00     0.170 HD
BRANCH   8  10
ATOM     10  C   UNL     1      -3.328   0.212  -0.075  1.00  0.00     0.049 A 
ATOM     11  C   UNL     1      -5.753  -0.005   0.131  1.00  0.00     0.166 A 
ATOM     12  C   UNL     1      -4.457  -0.381   0.505  1.00  0.00     0.076 A 
ATOM     13  C   UNL     1      -5.916   0.974  -0.859  1.00  0.00     0.203 A 
ATOM     14  C   UNL     1      -4.807   1.602  -1.446  1.00  0.00     0.166 A 
ATOM     15  C   UNL     1      -3.525   1.205  -1.053  1.00  0.00     0.076 A 
BRANCH  11  16
ATOM     16  O   UNL     1      -6.905  -0.535   0.655  1.00  0.00    -0.493 OA
ATOM     17  C   UNL     1      -6.774  -1.431   1.750  1.00  0.00     0.278 C 
ENDBRANCH  11  16
BRANCH  13  18
ATOM     18  O   UNL     1      -7.184   1.383  -1.208  1.00  0.00    -0.490 OA
ATOM     19  C   UNL     1      -7.671   0.580  -2.282  1.00  0.00     0.278 C 
ENDBRANCH  13  18
BRANCH  14  20
ATOM     20  O   UNL     1      -5.079   2.558  -2.390  1.00  0.00    -0.493 OA
ATOM     21  C   UNL     1      -3.990   3.333  -2.871  1.00  0.00     0.278 C 
ENDBRANCH  14  20
ENDBRANCH   8  10
ENDBRANCH   1   8
BRANCH   6  22
ATOM     22  N   UNL     1       1.962  -1.918   2.047  1.00  0.00    -0.322 N 
ATOM     23  H   UNL     1       2.352  -2.853   2.109  1.00  0.00     0.170 HD
BRANCH  22  24
ATOM     24  C   UNL     1       2.892  -1.095   1.412  1.00  0.00     0.134 A 
ATOM     25  C   UNL     1       2.652   0.250   1.139  1.00  0.00     0.051 A 
ATOM     26  N   UNL     1       4.076  -1.678   1.120  1.00  0.00    -0.210 NA
ATOM     27  C   UNL     1       3.642   1.016   0.525  1.00  0.00     0.054 A 
ATOM     28  C   UNL     1       5.022  -0.917   0.533  1.00  0.00     0.177 A 
ATOM     29  C   UNL     1       4.856   0.425   0.218  1.00  0.00     0.163 A 
ATOM     30  N   UNL     1       6.206  -1.553   0.197  1.00  0.00    -0.304 N 
ATOM     31  O   UNL     1       5.792   1.197  -0.407  1.00  0.00    -0.474 OA
ATOM     32  C   UNL     1       7.239  -0.894  -0.402  1.00  0.00     0.269 C 
ATOM     33  H   UNL     1       6.257  -2.554   0.315  1.00  0.00     0.171 HD
ATOM     34  C   UNL     1       7.117   0.650  -0.412  1.00  0.00     0.182 C 
ATOM     35  O   UNL     1       8.223  -1.505  -0.816  1.00  0.00    -0.270 OA
ATOM     36  C   UNL     1       7.798   1.191  -1.674  1.00  0.00     0.067 C 
ATOM     37  C   UNL     1       7.846   1.190   0.828  1.00  0.00     0.067 C 
ENDBRANCH  22  24
ENDBRANCH   6  22
TORSDOF 7
