REMARK SMILES O=C1N(Cc2ccccc2)C2C[S+]3CCCC3C2N1Cc1ccccc1
REMARK SMILES IDX 1 1 2 2 3 3 11 4 12 5 13 6 14 7 15 8 16 9 17 10 18 11 19 12
REMARK SMILES IDX 4 13 5 14 6 15 10 16 7 17 9 18 8 19 20 20 21 21 22 22 26 23
REMARK SMILES IDX 23 24 25 25 24 26
REMARK H PARENT
REMARK Flexibility Score: inf
ROOT
ATOM      1  O   UNL     1      -0.308  -2.448   1.542  1.00  0.00    -0.248 OA
ATOM      2  C   UNL     1      -0.296  -1.377   0.957  1.00  0.00     0.321 C 
ATOM      3  N   UNL     1      -1.182  -0.321   1.165  1.00  0.00    -0.310 N 
ATOM      4  C   UNL     1      -1.097   0.645   0.082  1.00  0.00     0.164 C 
ATOM      5  C   UNL     1      -1.068   2.103   0.538  1.00  0.00     0.305 C 
ATOM      6  S   UNL     1       0.193   2.958  -0.485  1.00  0.00    -0.005 S 
ATOM      7  C   UNL     1       1.140   3.737   0.874  1.00  0.00     0.278 C 
ATOM      8  C   UNL     1       2.375   2.889   1.119  1.00  0.00     0.060 C 
ATOM      9  C   UNL     1       1.949   1.445   0.931  1.00  0.00     0.066 C 
ATOM     10  C   UNL     1       1.222   1.407  -0.413  1.00  0.00     0.232 C 
ATOM     11  C   UNL     1       0.215   0.274  -0.634  1.00  0.00     0.167 C 
ATOM     12  N   UNL     1       0.584  -1.012  -0.065  1.00  0.00    -0.310 N 
ENDROOT
BRANCH   3  13
ATOM     13  C   UNL     1      -2.351  -0.446   2.017  1.00  0.00     0.157 C 
BRANCH  13  14
ATOM     14  C   UNL     1      -3.593  -0.849   1.258  1.00  0.00    -0.028 A 
ATOM     15  C   UNL     1      -4.598   0.091   0.980  1.00  0.00     0.005 A 
ATOM     16  C   UNL     1      -3.750  -2.165   0.804  1.00  0.00     0.005 A 
ATOM     17  C   UNL     1      -5.734  -0.282   0.261  1.00  0.00     0.000 A 
ATOM     18  C   UNL     1      -4.888  -2.536   0.087  1.00  0.00     0.000 A 
ATOM     19  C   UNL     1      -5.879  -1.594  -0.185  1.00  0.00     0.000 A 
ENDBRANCH  13  14
ENDBRANCH   3  13
BRANCH  12  20
ATOM     20  C   UNL     1       1.303  -2.025  -0.814  1.00  0.00     0.157 C 
BRANCH  20  21
ATOM     21  C   UNL     1       2.634  -1.556  -1.341  1.00  0.00    -0.028 A 
ATOM     22  C   UNL     1       3.755  -1.526  -0.498  1.00  0.00     0.005 A 
ATOM     23  C   UNL     1       2.774  -1.130  -2.671  1.00  0.00     0.005 A 
ATOM     24  C   UNL     1       4.989  -1.078  -0.974  1.00  0.00     0.000 A 
ATOM     25  C   UNL     1       4.008  -0.682  -3.145  1.00  0.00     0.000 A 
ATOM     26  C   UNL     1       5.115  -0.656  -2.297  1.00  0.00     0.000 A 
ENDBRANCH  20  21
ENDBRANCH  12  20
TORSDOF 4
