REMARK SMILES Cc1ncc2n1-c1ccc(Cl)cc1C(c1ccccc1F)=NC2
REMARK SMILES IDX 1 1 2 2 3 3 4 4 5 5 6 6 7 7 8 8 9 9 10 10 11 11 12 12 13 13
REMARK SMILES IDX 14 14 22 15 23 16 15 17 16 18 20 19 17 20 19 21 21 22 18 23
REMARK H PARENT
REMARK Flexibility Score: inf
ROOT
ATOM      1  C   UNL     1      -3.887   0.207   1.252  1.00  0.00     0.088 C 
ATOM      2  C   UNL     1      -3.247   0.825   0.061  1.00  0.00     0.110 A 
ATOM      3  N   UNL     1      -3.693   1.932  -0.503  1.00  0.00    -0.241 NA
ATOM      4  C   UNL     1      -2.768   2.273  -1.444  1.00  0.00     0.137 A 
ATOM      5  C   UNL     1      -1.750   1.350  -1.483  1.00  0.00     0.064 A 
ATOM      6  N   UNL     1      -2.063   0.397  -0.536  1.00  0.00    -0.298 N 
ATOM      7  C   UNL     1      -1.311  -0.787  -0.301  1.00  0.00     0.057 A 
ATOM      8  C   UNL     1      -1.986  -1.976   0.024  1.00  0.00     0.029 A 
ATOM      9  C   UNL     1      -1.278  -3.166   0.207  1.00  0.00     0.023 A 
ATOM     10  C   UNL     1       0.104  -3.180   0.056  1.00  0.00     0.041 A 
ATOM     11  Cl  UNL     1       0.971  -4.649   0.271  1.00  0.00    -0.084 Cl
ATOM     12  C   UNL     1       0.789  -2.013  -0.270  1.00  0.00     0.033 A 
ATOM     13  C   UNL     1       0.092  -0.804  -0.445  1.00  0.00     0.026 A 
ATOM     14  C   UNL     1       0.911   0.427  -0.692  1.00  0.00     0.077 C 
ATOM     15  N   UNL     1       0.632   1.363  -1.533  1.00  0.00    -0.278 NA
ATOM     16  C   UNL     1      -0.561   1.257  -2.351  1.00  0.00     0.198 C 
ENDROOT
BRANCH  14  17
ATOM     17  C   UNL     1       2.137   0.608   0.125  1.00  0.00     0.036 A 
ATOM     18  C   UNL     1       2.037   0.702   1.518  1.00  0.00     0.013 A 
ATOM     19  C   UNL     1       3.383   0.696  -0.495  1.00  0.00     0.132 A 
ATOM     20  C   UNL     1       3.193   0.879   2.281  1.00  0.00     0.001 A 
ATOM     21  C   UNL     1       4.535   0.870   0.266  1.00  0.00     0.040 A 
ATOM     22  F   UNL     1       3.503   0.567  -1.824  1.00  0.00    -0.206 F 
ATOM     23  C   UNL     1       4.440   0.963   1.656  1.00  0.00     0.003 A 
ENDBRANCH  14  17
TORSDOF 1
