REMARK SMILES CN(C)CCN(Cc1ccccc1)c1ccccn1
REMARK SMILES IDX 5 1 4 2 2 3 1 4 3 5 6 6 7 7 8 8 9 9 13 10 10 11 12 12 11 13
REMARK SMILES IDX 14 14 15 15 19 16 16 17 18 18 17 19
REMARK H PARENT
REMARK Flexibility Score: inf
ROOT
ATOM      1  C   UNL     1      -0.182   0.091   0.842  1.00  0.00     0.134 C 
ENDROOT
BRANCH   1   2
ATOM      2  C   UNL     1      -1.558  -0.442   0.372  1.00  0.00     0.105 C 
BRANCH   2   3
ATOM      3  N   UNL     1      -2.314  -1.303   1.303  1.00  0.00    -0.308 NA
ATOM      4  C   UNL     1      -1.648  -2.582   1.535  1.00  0.00     0.105 C 
ATOM      5  C   UNL     1      -2.631  -0.636   2.561  1.00  0.00     0.105 C 
ENDBRANCH   2   3
ENDBRANCH   1   2
BRANCH   1   6
ATOM      6  N   UNL     1       0.461   0.891  -0.226  1.00  0.00    -0.351 N 
BRANCH   6   7
ATOM      7  C   UNL     1       1.680   0.305  -0.810  1.00  0.00     0.153 C 
BRANCH   7   8
ATOM      8  C   UNL     1       1.368  -0.974  -1.564  1.00  0.00    -0.029 A 
ATOM      9  C   UNL     1       1.862  -2.210  -1.122  1.00  0.00     0.005 A 
ATOM     10  C   UNL     1       0.579  -0.934  -2.724  1.00  0.00     0.005 A 
ATOM     11  C   UNL     1       1.566  -3.381  -1.821  1.00  0.00     0.000 A 
ATOM     12  C   UNL     1       0.284  -2.106  -3.422  1.00  0.00     0.000 A 
ATOM     13  C   UNL     1       0.778  -3.329  -2.970  1.00  0.00     0.000 A 
ENDBRANCH   7   8
ENDBRANCH   6   7
BRANCH   6  14
ATOM     14  C   UNL     1       0.652   2.237   0.158  1.00  0.00     0.128 A 
ATOM     15  C   UNL     1      -0.461   3.041   0.420  1.00  0.00     0.047 A 
ATOM     16  N   UNL     1       1.903   2.742   0.251  1.00  0.00    -0.239 NA
ATOM     17  C   UNL     1      -0.288   4.371   0.797  1.00  0.00     0.005 A 
ATOM     18  C   UNL     1       2.049   4.035   0.616  1.00  0.00     0.113 A 
ATOM     19  C   UNL     1       0.995   4.883   0.900  1.00  0.00     0.020 A 
ENDBRANCH   6  14
ENDBRANCH   1   6
TORSDOF 6
