./l.pdb
     RDKit          3D

 77 82  0  0  1  0  0  0  0  0999 V2000
   15.3360   11.0650   -1.1070 O   0  0  0  0  0  0  0  0  0  0  0  0
   14.5460   11.4520   -0.2550 C   0  0  0  0  0  0  0  0  0  0  0  0
   13.4930   12.2610   -0.6220 N   0  0  0  0  0  0  0  0  0  0  0  0
   13.1810   12.6990   -1.9900 C   0  0  2  0  0  0  0  0  0  0  0  0
   14.3140   13.3220   -2.8210 C   0  0  0  0  0  0  0  0  0  0  0  0
   15.1850   12.2710   -3.4170 N   0  0  0  0  0  0  0  0  0  0  0  0
   16.1460   12.7750   -4.4060 C   0  0  0  0  0  0  0  0  0  0  0  0
   16.7160   11.5340   -5.1140 C   0  0  0  0  0  0  0  0  0  0  0  0
   15.6120   10.4740   -4.9560 C   0  0  0  0  0  0  0  0  0  0  0  0
   14.5100   11.2000   -4.1790 C   0  0  0  0  0  0  0  0  0  0  0  0
   11.9630   13.6210   -1.8830 C   0  0  0  0  0  0  0  0  0  0  0  0
   12.0090   14.1120   -0.4370 C   0  0  0  0  0  0  0  0  0  0  0  0
   12.5040   12.8690    0.2860 C   0  0  0  0  0  0  0  0  0  0  0  0
   14.8120   10.9760    1.1320 C   0  0  0  0  0  0  0  0  0  0  0  0
   15.9450   11.2580    1.9720 C   0  0  0  0  0  0  0  0  0  0  0  0
   17.1500   12.1330    1.6380 C   0  0  0  0  0  0  0  0  0  0  0  0
   13.9780   10.1320    1.8660 C   0  0  0  0  0  0  0  0  0  0  0  0
   12.6590    9.5440    1.4190 C   0  0  0  0  0  0  0  0  0  0  0  0
   14.5320    9.8990    3.0830 N   0  0  0  0  0  0  0  0  0  0  0  0
   15.7250   10.5710    3.1720 C   0  0  0  0  0  0  0  0  0  0  0  0
   16.6390   10.5670    4.3490 C   0  0  0  0  0  0  0  0  0  0  0  0
   16.4510    9.8950    5.5930 C   0  0  0  0  0  0  0  0  0  0  0  0
   15.3350    9.0280    6.0800 C   0  0  0  0  0  0  0  0  0  0  0  0
   14.3120    8.7160    5.4620 O   0  0  0  0  0  0  0  0  0  0  0  0
   15.6290    8.6170    7.3690 N   0  0  0  0  0  0  0  0  0  0  0  0
   16.8530    9.1320    7.7780 C   0  0  0  0  0  0  0  0  0  0  0  0
   17.5470    8.9580    9.0160 C   0  0  0  0  0  0  0  0  0  0  0  0
   18.8190    9.5930    9.1760 C   0  0  0  0  0  0  0  0  0  0  0  0
   17.3980    9.9160    6.7390 C   0  0  0  0  0  0  0  0  0  0  0  0
   18.6580   10.5590    6.8940 C   0  0  0  0  0  0  0  0  0  0  0  0
   19.3960   10.3960    8.1270 C   0  0  0  0  0  0  0  0  0  0  0  0
   20.9930   11.1410    8.3430 S   0  0  2  0  0  0  0  0  0  0  0  0
   21.4290   10.9010    9.7100 O   0  0  0  0  0  0  0  0  0  0  0  0
   20.8780   12.5490    8.0130 O   0  0  0  0  0  0  0  0  0  0  0  0
   22.2000   10.3250    7.2310 C   0  0  0  0  0  0  0  0  0  0  0  0
   21.8100   10.3850    5.7280 C   0  0  0  0  0  0  0  0  0  0  0  0
   21.1460    9.2610    5.1060 C   0  0  0  0  0  0  0  0  0  0  0  0
   20.7680    7.8350    6.0130 Cl  0  0  0  0  0  0  0  0  0  0  0  0
   22.0970   11.5490    4.9180 C   0  0  0  0  0  0  0  0  0  0  0  0
   22.8940   12.9480    5.5620 Cl  0  0  0  0  0  0  0  0  0  0  0  0
   21.7170   11.5730    3.5330 C   0  0  0  0  0  0  0  0  0  0  0  0
   21.0590   10.4610    2.9330 C   0  0  0  0  0  0  0  0  0  0  0  0
   20.7760    9.3100    3.7220 C   0  0  0  0  0  0  0  0  0  0  0  0
   12.9838   11.7909   -2.5787 H   0  0  0  0  0  0  0  0  0  0  0  0
   13.8759   13.9259   -3.6293 H   0  0  0  0  0  0  0  0  0  0  0  0
   14.9283   13.9489   -2.1580 H   0  0  0  0  0  0  0  0  0  0  0  0
   15.6405   13.4301   -5.1308 H   0  0  0  0  0  0  0  0  0  0  0  0
   16.9408   13.3678   -3.9297 H   0  0  0  0  0  0  0  0  0  0  0  0
   17.6477   11.2027   -4.6322 H   0  0  0  0  0  0  0  0  0  0  0  0
   16.9695   11.7269   -6.1669 H   0  0  0  0  0  0  0  0  0  0  0  0
   15.2445   10.1428   -5.9384 H   0  0  0  0  0  0  0  0  0  0  0  0
   15.9655    9.5678   -4.4424 H   0  0  0  0  0  0  0  0  0  0  0  0
   13.7737   11.6311   -4.8733 H   0  0  0  0  0  0  0  0  0  0  0  0
   13.9678   10.5128   -3.5129 H   0  0  0  0  0  0  0  0  0  0  0  0
   12.0449   14.4628   -2.5863 H   0  0  0  0  0  0  0  0  0  0  0  0
   11.0196   13.1130   -2.1317 H   0  0  0  0  0  0  0  0  0  0  0  0
   12.7096   14.9518   -0.3193 H   0  0  0  0  0  0  0  0  0  0  0  0
   11.0496   14.4982   -0.0624 H   0  0  0  0  0  0  0  0  0  0  0  0
   11.6720   12.1737    0.4713 H   0  0  0  0  0  0  0  0  0  0  0  0
   12.9404   13.1104    1.2665 H   0  0  0  0  0  0  0  0  0  0  0  0
   16.4676   10.3815    1.5613 H   0  0  0  0  0  0  0  0  0  0  0  0
   17.6232   12.4766    2.5697 H   0  0  0  0  0  0  0  0  0  0  0  0
   17.8754   11.5498    1.0518 H   0  0  0  0  0  0  0  0  0  0  0  0
   16.8200   13.0033    1.0518 H   0  0  0  0  0  0  0  0  0  0  0  0
   12.0590    9.2765    2.3013 H   0  0  0  0  0  0  0  0  0  0  0  0
   12.1134   10.2841    0.8152 H   0  0  0  0  0  0  0  0  0  0  0  0
   12.8448    8.6435    0.8152 H   0  0  0  0  0  0  0  0  0  0  0  0
   17.5662   11.1499    4.2465 H   0  0  0  0  0  0  0  0  0  0  0  0
   15.0246    8.0135    7.9446 H   0  0  0  0  0  0  0  0  0  0  0  0
   17.1139    8.3513    9.8249 H   0  0  0  0  0  0  0  0  0  0  0  0
   19.3688    9.4657   10.1202 H   0  0  0  0  0  0  0  0  0  0  0  0
   19.0681   11.1762    6.0810 H   0  0  0  0  0  0  0  0  0  0  0  0
   23.1751   10.8185    7.3560 H   0  0  0  0  0  0  0  0  0  0  0  0
   22.2263    9.2619    7.5124 H   0  0  0  0  0  0  0  0  0  0  0  0
   21.9374   12.4637    2.9263 H   0  0  0  0  0  0  0  0  0  0  0  0
   20.7726   10.4913    1.8714 H   0  0  0  0  0  0  0  0  0  0  0  0
   20.2676    8.4486    3.2643 H   0  0  0  0  0  0  0  0  0  0  0  0
  1  2  2  0
  2 14  1  0
  3  2  1  0
  3 13  1  0
  4  5  1  0
  4 11  1  0
  4  3  1  0
  6  5  1  0
  7  6  1  0
  8  9  1  0
  8  7  1  0
  9 10  1  0
 10  6  1  0
 11 12  1  0
 12 13  1  0
 14 17  2  0
 14 15  1  0
 15 16  1  0
 15 20  1  0
 17 19  1  0
 18 17  1  0
 19 20  2  0
 20 21  1  0
 21 22  2  0
 22 23  1  0
 22 29  1  0
 23 25  1  0
 24 23  2  0
 25 26  1  0
 26 27  2  0
 27 28  1  0
 29 30  2  0
 29 26  1  0
 30 31  1  0
 31 32  1  0
 31 28  2  0
 32 33  2  0
 34 32  2  0
 32 35  1  6
 36 35  1  0
 37 36  2  0
 37 38  1  0
 39 40  1  0
 39 36  1  0
 41 39  2  0
 42 41  1  0
 42 43  2  0
 43 37  1  0
  4 44  1  6
  5 45  1  0
  5 46  1  0
  7 47  1  0
  7 48  1  0
  8 49  1  0
  8 50  1  0
  9 51  1  0
  9 52  1  0
 10 53  1  0
 10 54  1  0
 11 55  1  0
 11 56  1  0
 12 57  1  0
 12 58  1  0
 13 59  1  0
 13 60  1  0
 15 61  1  0
 16 62  1  0
 16 63  1  0
 16 64  1  0
 18 65  1  0
 18 66  1  0
 18 67  1  0
 21 68  1  0
 25 69  1  0
 27 70  1  0
 28 71  1  0
 30 72  1  0
 35 73  1  0
 35 74  1  0
 41 75  1  0
 42 76  1  0
 43 77  1  0
M  END
>  <REMARK>  (1) 
 Selection '(resname PFY) a...tein not water)'

$$$$
