REMARK SMILES Nc1nc2ccc(OC(F)(F)F)cc2s1
REMARK SMILES IDX 2 1 3 2 4 3 5 4 6 5 7 6 13 7 14 8 15 9 1 10 8 13 9 14 10 15
REMARK SMILES IDX 11 16 12 17
REMARK H PARENT 1 11 1 12
REMARK Flexibility Score: inf
ROOT
ATOM      1  C   UNL     1       3.030   0.517   0.406  1.00  0.00     0.181 A 
ATOM      2  N   UNL     1       2.579  -0.688   0.644  1.00  0.00    -0.220 NA
ATOM      3  C   UNL     1       1.205  -0.720   0.484  1.00  0.00     0.084 A 
ATOM      4  C   UNL     1       0.379  -1.847   0.648  1.00  0.00     0.034 A 
ATOM      5  C   UNL     1      -1.002  -1.726   0.454  1.00  0.00     0.049 A 
ATOM      6  C   UNL     1      -1.580  -0.505   0.101  1.00  0.00     0.131 A 
ATOM      7  C   UNL     1      -0.774   0.627  -0.066  1.00  0.00     0.068 A 
ATOM      8  C   UNL     1       0.615   0.494   0.131  1.00  0.00     0.060 A 
ATOM      9  S   UNL     1       1.848   1.689   0.002  1.00  0.00    -0.097 S 
ENDROOT
BRANCH   1  10
ATOM     10  N   UNL     1       4.333   0.837   0.488  1.00  0.00    -0.375 N 
ATOM     11  H   UNL     1       4.562   1.805   0.677  1.00  0.00     0.159 HD
ATOM     12  H   UNL     1       4.902   0.175   1.003  1.00  0.00     0.159 HD
ENDBRANCH   1  10
BRANCH   6  13
ATOM     13  O   UNL     1      -2.938  -0.556  -0.050  1.00  0.00    -0.406 OA
BRANCH  13  14
ATOM     14  C   UNL     1      -3.613   0.638  -0.408  1.00  0.00     0.573 C 
ATOM     15  F   UNL     1      -4.935   0.377  -0.504  1.00  0.00    -0.132 F 
ATOM     16  F   UNL     1      -3.187   1.098  -1.603  1.00  0.00    -0.132 F 
ATOM     17  F   UNL     1      -3.440   1.593   0.531  1.00  0.00    -0.132 F 
ENDBRANCH  13  14
ENDBRANCH   6  13
TORSDOF 3
