REMARK SMILES CN1CCC(OC(c2ccccc2)c2ccccc2)CC1
REMARK SMILES IDX 7 1 6 2 5 3 1 4 2 5 3 6 21 7 4 8 20 9 8 10 9 11 13 12 10 13
REMARK SMILES IDX 12 14 11 15 14 16 15 17 19 18 16 19 18 20 17 21
REMARK H PARENT
REMARK Flexibility Score: inf
ROOT
ATOM      1  C   UNL     1      -0.998   0.309  -0.087  1.00  0.00     0.179 C 
ENDROOT
BRANCH   1   2
ATOM      2  O   UNL     1       0.319  -0.212   0.157  1.00  0.00    -0.365 OA
BRANCH   2   3
ATOM      3  C   UNL     1       1.154   0.647   0.942  1.00  0.00     0.122 C 
ATOM      4  C   UNL     1       4.841   1.020   0.536  1.00  0.00     0.105 C 
ATOM      5  N   UNL     1       3.863   0.225  -0.201  1.00  0.00    -0.306 NA
ATOM      6  C   UNL     1       2.861   1.051  -0.885  1.00  0.00     0.087 C 
ATOM      7  C   UNL     1       3.216  -0.793   0.637  1.00  0.00     0.087 C 
ATOM      8  C   UNL     1       1.835   1.692   0.054  1.00  0.00     0.047 C 
ATOM      9  C   UNL     1       2.201  -0.227   1.634  1.00  0.00     0.047 C 
ENDBRANCH   2   3
ENDBRANCH   1   2
BRANCH   1  10
ATOM     10  C   UNL     1      -1.452  -0.076  -1.489  1.00  0.00    -0.015 A 
ATOM     11  C   UNL     1      -0.923  -1.191  -2.160  1.00  0.00     0.007 A 
ATOM     12  C   UNL     1      -2.440   0.686  -2.137  1.00  0.00     0.007 A 
ATOM     13  C   UNL     1      -1.362  -1.529  -3.442  1.00  0.00     0.000 A 
ATOM     14  C   UNL     1      -2.877   0.348  -3.420  1.00  0.00     0.000 A 
ATOM     15  C   UNL     1      -2.337  -0.759  -4.071  1.00  0.00     0.000 A 
ENDBRANCH   1  10
BRANCH   1  16
ATOM     16  C   UNL     1      -1.945  -0.194   0.992  1.00  0.00    -0.015 A 
ATOM     17  C   UNL     1      -2.872   0.679   1.585  1.00  0.00     0.007 A 
ATOM     18  C   UNL     1      -1.927  -1.536   1.405  1.00  0.00     0.007 A 
ATOM     19  C   UNL     1      -3.749   0.223   2.571  1.00  0.00     0.000 A 
ATOM     20  C   UNL     1      -2.804  -1.991   2.391  1.00  0.00     0.000 A 
ATOM     21  C   UNL     1      -3.713  -1.111   2.974  1.00  0.00     0.000 A 
ENDBRANCH   1  16
TORSDOF 4
