REMARK SMILES Cc1ncc2n1-c1ccc(Cl)cc1C(c1ccccc1F)=NC2
REMARK SMILES IDX 1 1 2 2 3 3 4 4 5 5 23 6 22 7 14 8 13 9 7 10 8 11 9 12 10 13
REMARK SMILES IDX 11 14 12 15 6 16 15 17 16 18 20 19 17 20 19 21 21 22 18 23
REMARK H PARENT
REMARK Flexibility Score: inf
ROOT
ATOM      1  C   UNL     1      -3.634  -1.445   1.103  1.00  0.00     0.088 C 
ATOM      2  C   UNL     1      -3.072  -0.080   1.279  1.00  0.00     0.110 A 
ATOM      3  N   UNL     1      -3.440   0.735   2.251  1.00  0.00    -0.241 NA
ATOM      4  C   UNL     1      -2.596   1.804   2.183  1.00  0.00     0.137 A 
ATOM      5  C   UNL     1      -1.715   1.665   1.137  1.00  0.00     0.064 A 
ATOM      6  C   UNL     1      -0.658   2.562   0.629  1.00  0.00     0.198 C 
ATOM      7  N   UNL     1       0.629   1.902   0.763  1.00  0.00    -0.278 NA
ATOM      8  C   UNL     1       0.875   0.837   0.075  1.00  0.00     0.077 C 
ATOM      9  C   UNL     1      -0.062   0.230  -0.926  1.00  0.00     0.026 A 
ATOM     10  C   UNL     1      -1.423  -0.019  -0.656  1.00  0.00     0.057 A 
ATOM     11  C   UNL     1      -2.206  -0.689  -1.610  1.00  0.00     0.029 A 
ATOM     12  C   UNL     1      -1.645  -1.095  -2.824  1.00  0.00     0.023 A 
ATOM     13  C   UNL     1      -0.308  -0.825  -3.096  1.00  0.00     0.041 A 
ATOM     14  Cl  UNL     1       0.372  -1.309  -4.600  1.00  0.00    -0.084 Cl
ATOM     15  C   UNL     1       0.482  -0.162  -2.162  1.00  0.00     0.033 A 
ATOM     16  N   UNL     1      -2.032   0.465   0.532  1.00  0.00    -0.298 N 
ENDROOT
BRANCH   8  17
ATOM     17  C   UNL     1       2.198   0.180   0.306  1.00  0.00     0.036 A 
ATOM     18  C   UNL     1       3.327   0.980   0.525  1.00  0.00     0.013 A 
ATOM     19  C   UNL     1       2.329  -1.210   0.346  1.00  0.00     0.132 A 
ATOM     20  C   UNL     1       4.573   0.389   0.748  1.00  0.00     0.001 A 
ATOM     21  C   UNL     1       3.571  -1.802   0.568  1.00  0.00     0.040 A 
ATOM     22  F   UNL     1       1.265  -2.011   0.188  1.00  0.00    -0.206 F 
ATOM     23  C   UNL     1       4.696  -1.001   0.765  1.00  0.00     0.003 A 
ENDBRANCH   8  17
TORSDOF 1
