REMARK SMILES CNC1=Nc2ccc(Cl)cc2C(c2ccccc2)=[N+]([O-])C1
REMARK SMILES IDX 5 1 6 2 7 3 8 4 9 5 10 6 11 7 4 8 1 9 2 10 3 11 12 14 19 15
REMARK SMILES IDX 20 16 13 17 14 18 18 19 15 20 17 21 16 22 21 23
REMARK H PARENT 2 12
REMARK Flexibility Score: 90.00
ROOT
ATOM      1  C   UNL     1      -1.299   1.392   0.162  1.00  0.00     0.079 A 
ATOM      2  C   UNL     1      -1.636   2.733   0.387  1.00  0.00     0.031 A 
ATOM      3  C   UNL     1      -0.723   3.761   0.144  1.00  0.00     0.023 A 
ATOM      4  C   UNL     1       0.550   3.452  -0.323  1.00  0.00     0.042 A 
ATOM      5  Cl  UNL     1       1.677   4.714  -0.629  1.00  0.00    -0.084 Cl
ATOM      6  C   UNL     1       0.918   2.127  -0.546  1.00  0.00     0.037 A 
ATOM      7  C   UNL     1      -0.000   1.093  -0.298  1.00  0.00     0.075 A 
ENDROOT
BRANCH   1   8
ATOM      8  N   UNL     1      -2.285   0.442   0.476  1.00  0.00    -0.228 NA
ATOM      9  C   UNL     1      -4.086  -1.566   1.324  1.00  0.00     0.141 C 
ATOM     10  N   UNL     1      -3.483  -1.508   0.010  1.00  0.00    -0.371 N 
ATOM     11  C   UNL     1      -2.514  -0.576  -0.302  1.00  0.00     0.169 CG0
ATOM     12  H   UNL     1      -3.393  -2.415  -0.442  1.00  0.00     0.161 HD
ATOM     13  G   UNL     1      -1.732  -0.799  -1.575  1.00  0.00     0.000 G0
ENDBRANCH   1   8
BRANCH   7  14
ATOM     14  C   UNL     1       0.443  -0.306  -0.550  1.00  0.00     0.228 C 
ATOM     15  N   UNL     1      -0.374  -1.165  -1.140  1.00  0.00    -0.197 N 
ATOM     16  O   UNL     1      -0.019  -2.375  -1.363  1.00  0.00    -0.623 OA
BRANCH  14  17
ATOM     17  C   UNL     1       1.801  -0.724  -0.124  1.00  0.00     0.048 A 
ATOM     18  C   UNL     1       2.696  -1.279  -1.042  1.00  0.00     0.015 A 
ATOM     19  C   UNL     1       2.193  -0.509   1.201  1.00  0.00     0.015 A 
ATOM     20  C   UNL     1       3.984  -1.624  -0.631  1.00  0.00     0.001 A 
ATOM     21  C   UNL     1       3.483  -0.854   1.606  1.00  0.00     0.001 A 
ATOM     22  C   UNL     1       4.377  -1.410   0.691  1.00  0.00     0.000 A 
ENDBRANCH  14  17
BRANCH  15  23
ATOM     23  C   UNL     1      -1.732  -0.799  -1.575  1.00  0.00     0.439 CG0
ATOM     24  G   UNL     1      -2.514  -0.576  -0.302  1.00  0.00     0.000 G0
ENDBRANCH  15  23
ENDBRANCH   7  14
TORSDOF 1
