REMARK SMILES CCn1ccc(NS(=O)(=O)c2ccc(N)cc2)nc1=O
REMARK SMILES IDX 8 1 9 2 10 3 7 4 3 5 4 6 19 7 5 8 18 9 20 10 6 11 2 13 1 14
REMARK SMILES IDX 11 15 12 16 17 17 13 18 16 19 14 20 15 21
REMARK H PARENT 7 12 15 22 15 23
REMARK Flexibility Score: inf
ROOT
ATOM      1  S   UNL     1      -1.235  -2.815   0.950  1.00  0.00     0.263 S 
ATOM      2  O   UNL     1      -2.132  -3.834   0.453  1.00  0.00    -0.201 OA
ATOM      3  O   UNL     1      -0.628  -2.910   2.259  1.00  0.00    -0.201 OA
ENDROOT
BRANCH   1   4
ATOM      4  N   UNL     1      -0.029  -2.642  -0.175  1.00  0.00    -0.263 N 
ATOM      5  N   UNL     1       2.930   0.092  -0.558  1.00  0.00    -0.299 N 
ATOM      6  C   UNL     1       2.327  -0.017   0.674  1.00  0.00     0.094 C 
ATOM      7  C   UNL     1       2.535  -0.698  -1.646  1.00  0.00     0.349 C 
ATOM      8  C   UNL     1       1.347  -0.895   0.887  1.00  0.00     0.066 C 
ATOM      9  N   UNL     1       1.536  -1.620  -1.448  1.00  0.00    -0.175 NA
ATOM     10  O   UNL     1       3.057  -0.571  -2.750  1.00  0.00    -0.246 OA
ATOM     11  C   UNL     1       0.990  -1.692  -0.289  1.00  0.00     0.147 C 
ATOM     12  H   UNL     1      -0.193  -3.197  -1.013  1.00  0.00     0.182 HD
BRANCH   5  13
ATOM     13  C   UNL     1       3.978   1.091  -0.759  1.00  0.00     0.123 C 
ATOM     14  C   UNL     1       3.412   2.416  -1.248  1.00  0.00     0.028 C 
ENDBRANCH   5  13
ENDBRANCH   1   4
BRANCH   1  15
ATOM     15  C   UNL     1      -2.099  -1.267   0.844  1.00  0.00     0.088 A 
ATOM     16  C   UNL     1      -2.606  -0.850  -0.388  1.00  0.00     0.024 A 
ATOM     17  C   UNL     1      -2.240  -0.467   1.979  1.00  0.00     0.024 A 
ATOM     18  C   UNL     1      -3.259   0.382  -0.478  1.00  0.00     0.027 A 
ATOM     19  C   UNL     1      -2.897   0.762   1.873  1.00  0.00     0.027 A 
ATOM     20  C   UNL     1      -3.452   1.176   0.657  1.00  0.00     0.031 A 
BRANCH  20  21
ATOM     21  N   UNL     1      -3.994   2.459   0.534  1.00  0.00    -0.399 N 
ATOM     22  H   UNL     1      -4.387   2.827   1.395  1.00  0.00     0.156 HD
ATOM     23  H   UNL     1      -4.630   2.565  -0.251  1.00  0.00     0.156 HD
ENDBRANCH  20  21
ENDBRANCH   1  15
TORSDOF 4
