REMARK SMILES CC(=O)OCC1=C(C(=O)O)N2C(=O)[C@@H](NC(=O)[C@H](N)c3ccccc3)[C@H]2SC1
REMARK SMILES IDX 6 1 7 2 11 3 12 4 13 5 14 6 26 7 27 8 28 9 5 10 4 11 2 12
REMARK SMILES IDX 1 13 3 14 8 15 9 16 10 17 15 19 16 20 17 22 18 23 19 24
REMARK SMILES IDX 20 27 21 28 25 29 22 30 24 31 23 32
REMARK H PARENT 10 18 15 21 19 25 19 26
REMARK Flexibility Score: inf
ROOT
ATOM      1  C   UNL     1      -2.388  -0.047   1.002  1.00  0.00     0.008 C 
ATOM      2  C   UNL     1      -2.409   0.686  -0.136  1.00  0.00     0.134 C 
ATOM      3  N   UNL     1      -1.626   0.374  -1.211  1.00  0.00    -0.289 N 
ATOM      4  C   UNL     1      -0.949   1.186  -2.060  1.00  0.00     0.253 C 
ATOM      5  O   UNL     1      -1.029   2.366  -2.310  1.00  0.00    -0.272 OA
ATOM      6  C   UNL     1       0.020   0.025  -2.425  1.00  0.00     0.205 C 
ATOM      7  C   UNL     1      -0.712  -0.751  -1.285  1.00  0.00     0.181 C 
ATOM      8  S   UNL     1       0.151  -0.919   0.308  1.00  0.00    -0.129 SA
ATOM      9  C   UNL     1      -1.386  -1.151   1.248  1.00  0.00     0.108 C 
ENDROOT
BRANCH   1  10
ATOM     10  C   UNL     1      -3.336   0.173   2.161  1.00  0.00     0.267 C 
BRANCH  10  11
ATOM     11  O   UNL     1      -4.673   0.288   1.663  1.00  0.00    -0.461 OA
BRANCH  11  12
ATOM     12  C   UNL     1      -5.602   0.523   2.627  1.00  0.00     0.302 C 
ATOM     13  C   UNL     1      -6.957   0.674   2.007  1.00  0.00     0.139 C 
ATOM     14  O   UNL     1      -5.372   0.609   3.824  1.00  0.00    -0.253 OA
ENDBRANCH  11  12
ENDBRANCH  10  11
ENDBRANCH   1  10
BRANCH   2  15
ATOM     15  C   UNL     1      -3.304   1.866  -0.293  1.00  0.00     0.352 C 
ATOM     16  O   UNL     1      -4.085   2.053  -1.209  1.00  0.00    -0.245 OA
BRANCH  15  17
ATOM     17  O   UNL     1      -3.133   2.767   0.692  1.00  0.00    -0.477 OA
ATOM     18  H   UNL     1      -3.701   3.515   0.414  1.00  0.00     0.297 HD
ENDBRANCH  15  17
ENDBRANCH   2  15
BRANCH   6  19
ATOM     19  N   UNL     1       1.470   0.309  -2.263  1.00  0.00    -0.340 N 
ATOM     20  C   UNL     1       2.409  -0.681  -2.470  1.00  0.00     0.242 C 
ATOM     21  H   UNL     1       1.771   1.196  -1.873  1.00  0.00     0.164 HD
ATOM     22  O   UNL     1       2.085  -1.819  -2.816  1.00  0.00    -0.273 OA
BRANCH  20  23
ATOM     23  C   UNL     1       3.878  -0.251  -2.214  1.00  0.00     0.172 C 
BRANCH  23  24
ATOM     24  N   UNL     1       4.774  -0.979  -3.130  1.00  0.00    -0.316 NA
ATOM     25  H   UNL     1       4.508  -1.966  -3.098  1.00  0.00     0.119 HD
ATOM     26  H   UNL     1       5.724  -0.931  -2.765  1.00  0.00     0.119 HD
ENDBRANCH  23  24
BRANCH  23  27
ATOM     27  C   UNL     1       4.288  -0.457  -0.768  1.00  0.00    -0.022 A 
ATOM     28  C   UNL     1       4.941   0.575  -0.074  1.00  0.00     0.006 A 
ATOM     29  C   UNL     1       4.066  -1.675  -0.106  1.00  0.00     0.006 A 
ATOM     30  C   UNL     1       5.341   0.400   1.252  1.00  0.00     0.000 A 
ATOM     31  C   UNL     1       4.466  -1.848   1.220  1.00  0.00     0.000 A 
ATOM     32  C   UNL     1       5.102  -0.811   1.899  1.00  0.00     0.000 A 
ENDBRANCH  23  27
ENDBRANCH  20  23
ENDBRANCH   6  19
TORSDOF 9
