REMARK SMILES CC(=O)OC[C@H]1O[C@@H](n2ccc(=O)[nH]c2=O)[C@H](OC(C)=O)[C@@H]1OC(C)=O
REMARK SMILES IDX 6 1 7 2 8 3 17 4 22 5 5 6 4 7 2 8 1 9 3 10 23 11 24 12 25 13
REMARK SMILES IDX 26 14 9 15 10 16 15 17 11 18 14 19 16 20 12 21 13 23 18 24
REMARK SMILES IDX 19 25 20 26 21 27
REMARK H PARENT 14 22
REMARK Flexibility Score: inf
ROOT
ATOM      1  C   UNL     1       1.119  -0.343   0.525  1.00  0.00     0.203 C 
ATOM      2  O   UNL     1       0.487   0.907   0.861  1.00  0.00    -0.343 OA
ATOM      3  C   UNL     1      -0.893   0.812   0.464  1.00  0.00     0.268 C 
ATOM      4  C   UNL     1      -1.075  -0.480  -0.364  1.00  0.00     0.270 C 
ATOM      5  C   UNL     1       0.360  -0.902  -0.672  1.00  0.00     0.254 C 
ENDROOT
BRANCH   1   6
ATOM      6  C   UNL     1       2.601  -0.125   0.229  1.00  0.00     0.269 C 
BRANCH   6   7
ATOM      7  O   UNL     1       3.269   0.215   1.457  1.00  0.00    -0.463 OA
BRANCH   7   8
ATOM      8  C   UNL     1       4.609   0.407   1.328  1.00  0.00     0.302 C 
ATOM      9  C   UNL     1       5.201   0.803   2.646  1.00  0.00     0.139 C 
ATOM     10  O   UNL     1       5.250   0.268   0.296  1.00  0.00    -0.253 OA
ENDBRANCH   7   8
ENDBRANCH   6   7
ENDBRANCH   1   6
BRANCH   5  11
ATOM     11  O   UNL     1       0.570  -2.320  -0.770  1.00  0.00    -0.455 OA
BRANCH  11  12
ATOM     12  C   UNL     1      -0.020  -2.921  -1.839  1.00  0.00     0.303 C 
ATOM     13  C   UNL     1       0.287  -4.387  -1.839  1.00  0.00     0.139 C 
ATOM     14  O   UNL     1      -0.710  -2.357  -2.674  1.00  0.00    -0.253 OA
ENDBRANCH  11  12
ENDBRANCH   5  11
BRANCH   3  15
ATOM     15  N   UNL     1      -1.291   2.058  -0.196  1.00  0.00    -0.270 N 
ATOM     16  C   UNL     1      -2.326   2.799   0.348  1.00  0.00     0.099 C 
ATOM     17  C   UNL     1      -0.656   2.460  -1.362  1.00  0.00     0.330 C 
ATOM     18  C   UNL     1      -2.749   3.941  -0.198  1.00  0.00     0.090 C 
ATOM     19  N   UNL     1      -1.091   3.641  -1.904  1.00  0.00    -0.274 N 
ATOM     20  O   UNL     1       0.237   1.829  -1.922  1.00  0.00    -0.248 OA
ATOM     21  C   UNL     1      -2.094   4.427  -1.420  1.00  0.00     0.253 C 
ATOM     22  H   UNL     1      -0.635   3.946  -2.748  1.00  0.00     0.175 HD
ATOM     23  O   UNL     1      -2.445   5.472  -1.954  1.00  0.00    -0.269 OA
ENDBRANCH   3  15
BRANCH   4  24
ATOM     24  O   UNL     1      -1.704  -1.523   0.428  1.00  0.00    -0.454 OA
BRANCH  24  25
ATOM     25  C   UNL     1      -3.027  -1.339   0.683  1.00  0.00     0.303 C 
ATOM     26  C   UNL     1      -3.588  -2.529   1.399  1.00  0.00     0.139 C 
ATOM     27  O   UNL     1      -3.662  -0.336   0.395  1.00  0.00    -0.253 OA
ENDBRANCH  24  25
ENDBRANCH   4  24
TORSDOF 8
