REMARK SMILES Cc1ccc2c(Cl)cc(Cl)c(O)c2n1
REMARK SMILES IDX 1 1 2 2 3 3 4 4 5 5 6 6 7 7 8 8 9 9 10 10 11 11 13 12 14 13
REMARK SMILES IDX 12 14
REMARK H PARENT 12 15
REMARK Flexibility Score: inf
ROOT
ATOM      1  C   UNL     1       2.811  -1.773  -0.553  1.00  0.00     0.067 C 
ATOM      2  C   UNL     1       1.735  -0.746  -0.365  1.00  0.00     0.038 A 
ATOM      3  C   UNL     1       2.022   0.600  -0.524  1.00  0.00     0.024 A 
ATOM      4  C   UNL     1       0.998   1.526  -0.342  1.00  0.00     0.014 A 
ATOM      5  C   UNL     1      -0.303   1.100  -0.002  1.00  0.00     0.023 A 
ATOM      6  C   UNL     1      -1.412   1.960   0.205  1.00  0.00     0.052 A 
ATOM      7  Cl  UNL     1      -1.271   3.680   0.055  1.00  0.00    -0.084 Cl
ATOM      8  C   UNL     1      -2.668   1.453   0.540  1.00  0.00     0.045 A 
ATOM      9  C   UNL     1      -2.839   0.081   0.674  1.00  0.00     0.086 A 
ATOM     10  Cl  UNL     1      -4.399  -0.525   1.088  1.00  0.00    -0.080 Cl
ATOM     11  C   UNL     1      -1.753  -0.770   0.472  1.00  0.00     0.160 A 
ATOM     12  C   UNL     1      -0.490  -0.289   0.137  1.00  0.00     0.115 A 
ATOM     13  N   UNL     1       0.499  -1.191  -0.039  1.00  0.00    -0.249 NA
ENDROOT
BRANCH  11  14
ATOM     14  O   UNL     1      -1.907  -2.135   0.601  1.00  0.00    -0.504 OA
ATOM     15  H   UNL     1      -1.016  -2.500   0.412  1.00  0.00     0.293 HD
ENDBRANCH  11  14
TORSDOF 1
