REMARK SMILES CN(C)CCCC1c2ccccc2Nc2ccc(Cl)cc21
REMARK SMILES IDX 5 1 4 2 2 3 1 4 3 5 6 6 7 7 8 8 21 9 9 10 13 11 15 12 20 13
REMARK SMILES IDX 10 14 12 15 14 16 16 17 18 18 11 19 17 21 19 22
REMARK H PARENT 14 20
REMARK Flexibility Score: inf
ROOT
ATOM      1  C   UNL     1       1.681   0.205  -0.193  1.00  0.00     0.016 C 
ENDROOT
BRANCH   1   2
ATOM      2  C   UNL     1       2.734   0.294   0.921  1.00  0.00     0.084 C 
BRANCH   2   3
ATOM      3  N   UNL     1       4.113   0.241   0.399  1.00  0.00    -0.309 NA
ATOM      4  C   UNL     1       5.060   0.627   1.449  1.00  0.00     0.104 C 
ATOM      5  C   UNL     1       4.460  -1.094  -0.100  1.00  0.00     0.104 C 
ENDBRANCH   2   3
ENDBRANCH   1   2
BRANCH   1   6
ATOM      6  C   UNL     1       0.262   0.380   0.373  1.00  0.00     0.014 C 
BRANCH   6   7
ATOM      7  C   UNL     1      -0.831   0.308  -0.729  1.00  0.00     0.054 C 
ATOM      8  C   UNL     1      -1.875   1.393  -0.480  1.00  0.00    -0.017 A 
ATOM      9  C   UNL     1      -1.420  -1.100  -0.813  1.00  0.00    -0.015 A 
ATOM     10  C   UNL     1      -1.566   2.744  -0.718  1.00  0.00     0.006 A 
ATOM     11  C   UNL     1      -3.141   1.052   0.023  1.00  0.00     0.042 A 
ATOM     12  C   UNL     1      -2.705  -1.353  -0.290  1.00  0.00     0.042 A 
ATOM     13  C   UNL     1      -0.690  -2.160  -1.381  1.00  0.00     0.027 A 
ATOM     14  C   UNL     1      -2.496   3.743  -0.428  1.00  0.00     0.000 A 
ATOM     15  C   UNL     1      -4.054   2.064   0.344  1.00  0.00     0.026 A 
ATOM     16  N   UNL     1      -3.457  -0.298   0.261  1.00  0.00    -0.355 N 
ATOM     17  C   UNL     1      -3.201  -2.662  -0.265  1.00  0.00     0.028 A 
ATOM     18  C   UNL     1      -1.212  -3.453  -1.378  1.00  0.00     0.041 A 
ATOM     19  C   UNL     1      -3.736   3.404   0.111  1.00  0.00     0.002 A 
ATOM     20  H   UNL     1      -4.447  -0.487   0.358  1.00  0.00     0.167 HD
ATOM     21  C   UNL     1      -2.459  -3.711  -0.815  1.00  0.00     0.022 A 
ATOM     22  Cl  UNL     1      -0.301  -4.742  -2.068  1.00  0.00    -0.084 Cl
ENDBRANCH   6   7
ENDBRANCH   1   6
TORSDOF 4
