REMARK SMILES CN1CCC[C@@H]1Cc1c[nH]c2ccc(CCS(=O)(=O)c3ccccc3)cc12
REMARK SMILES IDX 15 1 14 2 8 3 9 4 27 5 10 6 11 7 26 8 12 10 13 11 7 12 6 13
REMARK SMILES IDX 1 14 2 15 3 16 4 17 5 18 16 19 17 20 18 21 19 22 20 23 21 24
REMARK SMILES IDX 25 25 22 26 24 27 23 28
REMARK H PARENT 10 9
REMARK Flexibility Score: inf
ROOT
ATOM      1  C   UNL     1       2.233  -0.181   0.081  1.00  0.00     0.052 C 
ENDROOT
BRANCH   1   2
ATOM      2  C   UNL     1       1.142   0.457  -0.747  1.00  0.00    -0.046 A 
ATOM      3  C   UNL     1      -2.592   0.268  -1.635  1.00  0.00    -0.021 A 
ATOM      4  C   UNL     1      -3.057   1.184  -2.561  1.00  0.00     0.087 A 
ATOM      5  C   UNL     1      -1.193   0.528  -1.469  1.00  0.00     0.003 A 
ATOM      6  N   UNL     1      -2.014   1.984  -2.940  1.00  0.00    -0.361 N 
ATOM      7  C   UNL     1      -0.866   1.607  -2.288  1.00  0.00     0.046 A 
ATOM      8  C   UNL     1      -0.168  -0.057  -0.694  1.00  0.00     0.014 A 
ATOM      9  H   UNL     1      -2.070   2.738  -3.610  1.00  0.00     0.166 HD
ATOM     10  C   UNL     1       0.428   2.133  -2.369  1.00  0.00     0.027 A 
ATOM     11  C   UNL     1       1.423   1.540  -1.585  1.00  0.00     0.006 A 
BRANCH   3  12
ATOM     12  C   UNL     1      -3.403  -0.809  -0.975  1.00  0.00     0.057 C 
BRANCH  12  13
ATOM     13  C   UNL     1      -4.482  -0.280  -0.008  1.00  0.00     0.060 C 
ATOM     14  C   UNL     1      -3.174   0.865   1.721  1.00  0.00     0.105 C 
ATOM     15  N   UNL     1      -4.095  -0.221   1.417  1.00  0.00    -0.303 NA
ATOM     16  C   UNL     1      -5.352  -0.070   2.155  1.00  0.00     0.084 C 
ATOM     17  C   UNL     1      -6.346  -0.935   1.391  1.00  0.00     0.017 C 
ATOM     18  C   UNL     1      -5.664  -1.250   0.067  1.00  0.00     0.021 C 
ENDBRANCH  12  13
ENDBRANCH   3  12
ENDBRANCH   1   2
BRANCH   1  19
ATOM     19  C   UNL     1       2.912  -1.340  -0.638  1.00  0.00     0.147 C 
BRANCH  19  20
ATOM     20  S   UNL     1       4.530  -0.942  -1.272  1.00  0.00     0.178 S 
ATOM     21  O   UNL     1       5.094  -2.150  -1.848  1.00  0.00    -0.224 OA
ATOM     22  O   UNL     1       4.447   0.274  -2.056  1.00  0.00    -0.224 OA
BRANCH  20  23
ATOM     23  C   UNL     1       5.495  -0.583   0.180  1.00  0.00     0.067 A 
ATOM     24  C   UNL     1       5.858  -1.628   1.034  1.00  0.00     0.020 A 
ATOM     25  C   UNL     1       5.905   0.728   0.439  1.00  0.00     0.020 A 
ATOM     26  C   UNL     1       6.612  -1.350   2.173  1.00  0.00     0.001 A 
ATOM     27  C   UNL     1       6.660   0.997   1.580  1.00  0.00     0.001 A 
ATOM     28  C   UNL     1       7.009  -0.039   2.447  1.00  0.00     0.000 A 
ENDBRANCH  20  23
ENDBRANCH  19  20
ENDBRANCH   1  19
TORSDOF 6
