REMARK SMILES CC[N+](C)(C)C(C)CC(c1ccccc1)c1ccccc1
REMARK SMILES IDX 6 1 7 2 3 3 4 4 5 5 2 6 1 7 8 8 9 9 10 10 11 11 15 12 12 13
REMARK SMILES IDX 14 14 13 15 16 16 17 17 21 18 18 19 20 20 19 21
REMARK H PARENT
REMARK Flexibility Score: inf
ROOT
ATOM      1  C   UNL     1      -1.043   0.502  -1.098  1.00  0.00     0.183 C 
ATOM      2  C   UNL     1      -0.948   0.558  -2.631  1.00  0.00     0.075 C 
ENDROOT
BRANCH   1   3
ATOM      3  N   UNL     1      -2.558   0.379  -0.608  1.00  0.00    -0.326 N 
ATOM      4  C   UNL     1      -3.445   1.354  -1.397  1.00  0.00     0.334 C 
ATOM      5  C   UNL     1      -3.102  -1.035  -0.805  1.00  0.00     0.334 C 
BRANCH   3   6
ATOM      6  C   UNL     1      -2.592   0.792   0.896  1.00  0.00     0.260 C 
ATOM      7  C   UNL     1      -3.966   0.691   1.544  1.00  0.00     0.071 C 
ENDBRANCH   3   6
ENDBRANCH   1   3
BRANCH   1   8
ATOM      8  C   UNL     1      -0.173  -0.656  -0.543  1.00  0.00     0.078 C 
BRANCH   8   9
ATOM      9  C   UNL     1       1.345  -0.320  -0.503  1.00  0.00     0.055 C 
BRANCH   9  10
ATOM     10  C   UNL     1       1.610   0.827   0.468  1.00  0.00    -0.040 A 
ATOM     11  C   UNL     1       2.060   2.066  -0.019  1.00  0.00     0.004 A 
ATOM     12  C   UNL     1       1.401   0.684   1.849  1.00  0.00     0.004 A 
ATOM     13  C   UNL     1       2.274   3.136   0.851  1.00  0.00     0.000 A 
ATOM     14  C   UNL     1       1.617   1.756   2.716  1.00  0.00     0.000 A 
ATOM     15  C   UNL     1       2.048   2.982   2.217  1.00  0.00     0.000 A 
ENDBRANCH   9  10
BRANCH   9  16
ATOM     16  C   UNL     1       2.249  -1.521  -0.234  1.00  0.00    -0.040 A 
ATOM     17  C   UNL     1       3.583  -1.472  -0.680  1.00  0.00     0.004 A 
ATOM     18  C   UNL     1       1.826  -2.666   0.459  1.00  0.00     0.004 A 
ATOM     19  C   UNL     1       4.456  -2.537  -0.457  1.00  0.00     0.000 A 
ATOM     20  C   UNL     1       2.703  -3.732   0.681  1.00  0.00     0.000 A 
ATOM     21  C   UNL     1       4.015  -3.669   0.221  1.00  0.00     0.000 A 
ENDBRANCH   9  16
ENDBRANCH   8   9
ENDBRANCH   1   8
TORSDOF 6
