REMARK SMILES CC(C)OC(=O)CCC[C@H]1CC[C@@H]2[C@@H](/C=C/[C@@H](O)COc3cc(F)ccc3F)[C@H](O)C[C@@H]2OC1
REMARK SMILES IDX 34 1 10 2 9 4 8 5 7 6 5 7 6 8 4 9 2 10 1 11 3 12 33 13 32 14
REMARK SMILES IDX 13 15 31 16 14 17 29 18 12 19 11 20 15 22 16 23 17 24 18 25
REMARK SMILES IDX 19 27 20 28 21 29 22 30 27 31 23 32 26 33 28 34 24 35 25 36
REMARK SMILES IDX 30 37
REMARK H PARENT 18 26 30 38
REMARK Flexibility Score: 90.00
ROOT
ATOM      1  C   UNL     1       1.315   0.109  -2.210  1.00  0.00     0.164 C 
ENDROOT
BRANCH   1   2
ATOM      2  C   UNL     1       2.511  -0.327  -1.352  1.00  0.00     0.015 CG0
ATOM      3  G   UNL     1       2.076  -1.025  -0.052  1.00  0.00     0.000 G0
BRANCH   2   4
ATOM      4  C   UNL     1       3.432   0.886  -1.073  1.00  0.00     0.006 C 
BRANCH   4   5
ATOM      5  C   UNL     1       4.867   0.549  -0.648  1.00  0.00     0.012 C 
BRANCH   5   6
ATOM      6  C   UNL     1       5.022   0.087   0.800  1.00  0.00     0.123 C 
BRANCH   6   7
ATOM      7  C   UNL     1       6.439   0.201   1.314  1.00  0.00     0.306 C 
ATOM      8  O   UNL     1       6.715   0.519   2.464  1.00  0.00    -0.252 OA
BRANCH   7   9
ATOM      9  O   UNL     1       7.341  -0.163   0.363  1.00  0.00    -0.463 OA
BRANCH   9  10
ATOM     10  C   UNL     1       8.727  -0.122   0.749  1.00  0.00     0.170 C 
ATOM     11  C   UNL     1       9.251   1.306   0.633  1.00  0.00     0.052 C 
ATOM     12  C   UNL     1       9.483  -1.049  -0.195  1.00  0.00     0.052 C 
ENDBRANCH   9  10
ENDBRANCH   7   9
ENDBRANCH   6   7
ENDBRANCH   5   6
ENDBRANCH   4   5
ENDBRANCH   2   4
ENDBRANCH   1   2
BRANCH   1  13
ATOM     13  O   UNL     1       0.410   0.905  -1.460  1.00  0.00    -0.378 OA
BRANCH  13  14
ATOM     14  C   UNL     1      -0.723   0.238  -0.925  1.00  0.00     0.124 C 
ATOM     15  C   UNL     1      -0.472  -0.897   0.084  1.00  0.00     0.028 C 
ATOM     16  C   UNL     1      -1.707  -0.293  -1.981  1.00  0.00     0.064 C 
ATOM     17  C   UNL     1      -1.797  -1.700   0.032  1.00  0.00     0.046 C 
ATOM     18  C   UNL     1      -2.186  -1.647  -1.460  1.00  0.00     0.124 C 
BRANCH  15  19
ATOM     19  C   UNL     1       0.758  -1.793  -0.143  1.00  0.00     0.007 C 
BRANCH  19  20
ATOM     20  C   UNL     1       2.076  -1.025  -0.052  1.00  0.00     0.006 CG0
ATOM     21  G   UNL     1       2.511  -0.327  -1.352  1.00  0.00     0.000 G0
ENDBRANCH  19  20
ENDBRANCH  15  19
BRANCH  17  22
ATOM     22  C   UNL     1      -2.796  -1.117   1.018  1.00  0.00    -0.022 C 
ATOM     23  C   UNL     1      -3.979  -0.532   0.763  1.00  0.00     0.004 C 
BRANCH  23  24
ATOM     24  C   UNL     1      -4.937   0.037   1.784  1.00  0.00     0.174 C 
BRANCH  24  25
ATOM     25  O   UNL     1      -4.436  -0.180   3.101  1.00  0.00    -0.385 OA
ATOM     26  H   UNL     1      -5.182  -0.075   3.715  1.00  0.00     0.211 HD
ENDBRANCH  24  25
BRANCH  24  27
ATOM     27  C   UNL     1      -5.173   1.545   1.564  1.00  0.00     0.265 C 
BRANCH  27  28
ATOM     28  O   UNL     1      -5.890   1.818   0.347  1.00  0.00    -0.487 OA
BRANCH  28  29
ATOM     29  C   UNL     1      -7.231   1.550   0.416  1.00  0.00     0.158 A 
ATOM     30  C   UNL     1      -8.069   2.167   1.342  1.00  0.00     0.088 A 
ATOM     31  C   UNL     1      -7.773   0.676  -0.532  1.00  0.00     0.165 A 
ATOM     32  C   UNL     1      -9.429   1.863   1.336  1.00  0.00     0.127 A 
ATOM     33  C   UNL     1      -9.134   0.380  -0.538  1.00  0.00     0.046 A 
ATOM     34  F   UNL     1      -6.978   0.093  -1.442  1.00  0.00    -0.203 F 
ATOM     35  F   UNL     1     -10.234   2.440   2.238  1.00  0.00    -0.207 F 
ATOM     36  C   UNL     1      -9.968   0.975   0.407  1.00  0.00     0.042 A 
ENDBRANCH  28  29
ENDBRANCH  27  28
ENDBRANCH  24  27
ENDBRANCH  23  24
ENDBRANCH  17  22
BRANCH  18  37
ATOM     37  O   UNL     1      -1.511  -2.687  -2.172  1.00  0.00    -0.392 OA
ATOM     38  H   UNL     1      -1.866  -2.698  -3.078  1.00  0.00     0.210 HD
ENDBRANCH  18  37
ENDBRANCH  13  14
ENDBRANCH   1  13
TORSDOF 13
