REMARK SMILES CN(C)CC/C=C1\c2ccccc2CSc2ccccc21
REMARK SMILES IDX 4 1 2 2 1 3 3 4 5 5 6 6 7 7 8 8 21 9 9 10 13 11 16 12 20 13
REMARK SMILES IDX 10 14 12 15 14 16 15 17 17 18 19 19 11 20 18 21
REMARK H PARENT
REMARK Flexibility Score: inf
ROOT
ATOM      1  C   UNL     1       2.726  -0.666  -0.466  1.00  0.00     0.088 C 
ENDROOT
BRANCH   1   2
ATOM      2  N   UNL     1       3.394   0.612  -0.790  1.00  0.00    -0.309 NA
ATOM      3  C   UNL     1       3.765   0.691  -2.205  1.00  0.00     0.104 C 
ATOM      4  C   UNL     1       4.587   0.778   0.044  1.00  0.00     0.104 C 
ENDBRANCH   1   2
BRANCH   1   5
ATOM      5  C   UNL     1       1.334  -0.855  -1.100  1.00  0.00     0.043 C 
BRANCH   5   6
ATOM      6  C   UNL     1       0.359   0.230  -0.711  1.00  0.00    -0.016 C 
ATOM      7  C   UNL     1      -0.745   0.129   0.064  1.00  0.00    -0.014 C 
ATOM      8  C   UNL     1      -1.127  -1.180   0.629  1.00  0.00    -0.014 A 
ATOM      9  C   UNL     1      -1.589   1.342   0.246  1.00  0.00    -0.004 A 
ATOM     10  C   UNL     1      -0.442  -1.716   1.727  1.00  0.00     0.009 A 
ATOM     11  C   UNL     1      -2.207  -1.876   0.064  1.00  0.00    -0.030 A 
ATOM     12  C   UNL     1      -2.981   1.384   0.012  1.00  0.00     0.015 A 
ATOM     13  C   UNL     1      -0.946   2.502   0.736  1.00  0.00     0.010 A 
ATOM     14  C   UNL     1      -0.823  -2.949   2.256  1.00  0.00     0.001 A 
ATOM     15  C   UNL     1      -2.585  -3.111   0.609  1.00  0.00     0.005 A 
ATOM     16  C   UNL     1      -2.958  -1.269  -1.090  1.00  0.00     0.111 C 
ATOM     17  S   UNL     1      -4.072   0.066  -0.562  1.00  0.00    -0.121 SA
ATOM     18  C   UNL     1      -3.668   2.593   0.258  1.00  0.00     0.016 A 
ATOM     19  C   UNL     1      -1.646   3.686   0.966  1.00  0.00     0.001 A 
ATOM     20  C   UNL     1      -1.892  -3.646   1.696  1.00  0.00     0.000 A 
ATOM     21  C   UNL     1      -3.010   3.732   0.724  1.00  0.00     0.001 A 
ENDBRANCH   5   6
ENDBRANCH   1   5
TORSDOF 3
