REMARK SMILES CN1CCN(C2=Nc3ccccc3Oc3ccc(Cl)cc32)CC1
REMARK SMILES IDX 1 1 2 2 3 3 4 4 5 5 6 6 7 7 8 8 9 9 10 10 11 11 12 12 13 13
REMARK SMILES IDX 14 14 15 15 16 16 17 17 18 18 19 19 20 20 21 21 22 22 23 23
REMARK H PARENT
REMARK Flexibility Score: inf
ROOT
ATOM      1  C   UNL     1       5.201   0.796  -0.616  1.00  0.00     0.105 C 
ATOM      2  N   UNL     1       3.791   0.703  -0.984  1.00  0.00    -0.303 NA
ATOM      3  C   UNL     1       2.923   1.450  -0.042  1.00  0.00     0.105 C 
ATOM      4  C   UNL     1       2.131   0.557   0.933  1.00  0.00     0.133 C 
ATOM      5  N   UNL     1       1.236  -0.370   0.200  1.00  0.00    -0.353 N 
ATOM      6  C   UNL     1      -0.143  -0.111   0.193  1.00  0.00     0.140 C 
ATOM      7  N   UNL     1      -0.569   1.068   0.554  1.00  0.00    -0.227 NA
ATOM      8  C   UNL     1      -1.919   1.446   0.568  1.00  0.00     0.108 A 
ATOM      9  C   UNL     1      -2.332   2.314   1.584  1.00  0.00     0.032 A 
ATOM     10  C   UNL     1      -3.638   2.813   1.624  1.00  0.00     0.003 A 
ATOM     11  C   UNL     1      -4.548   2.460   0.630  1.00  0.00     0.004 A 
ATOM     12  C   UNL     1      -4.153   1.605  -0.397  1.00  0.00     0.049 A 
ATOM     13  C   UNL     1      -2.851   1.093  -0.415  1.00  0.00     0.153 A 
ATOM     14  O   UNL     1      -2.531   0.248  -1.453  1.00  0.00    -0.454 OA
ATOM     15  C   UNL     1      -2.166  -1.004  -1.027  1.00  0.00     0.138 A 
ATOM     16  C   UNL     1      -2.950  -2.076  -1.465  1.00  0.00     0.049 A 
ATOM     17  C   UNL     1      -2.645  -3.374  -1.054  1.00  0.00     0.024 A 
ATOM     18  C   UNL     1      -1.556  -3.594  -0.212  1.00  0.00     0.042 A 
ATOM     19  Cl  UNL     1      -1.183  -5.194   0.300  1.00  0.00    -0.084 Cl
ATOM     20  C   UNL     1      -0.759  -2.531   0.210  1.00  0.00     0.036 A 
ATOM     21  C   UNL     1      -1.054  -1.229  -0.214  1.00  0.00     0.061 A 
ATOM     22  C   UNL     1       1.840  -0.897  -1.054  1.00  0.00     0.133 C 
ATOM     23  C   UNL     1       3.372  -0.710  -1.094  1.00  0.00     0.105 C 
ENDROOT
TORSDOF 0
