REMARK SMILES Cc1ccc([C@H]2C[C@@H]2COc2cc(NCc3nnc(C)s3)nc(C)n2)nc1
REMARK SMILES IDX 13 1 12 2 11 3 25 4 23 5 24 6 22 7 14 8 15 10 16 11 20 12
REMARK SMILES IDX 19 13 18 14 21 15 17 16 10 17 9 18 8 19 7 20 6 21 5 22 4 23
REMARK SMILES IDX 26 24 3 25 27 26 2 27 1 28
REMARK H PARENT 14 9
REMARK Flexibility Score: inf
ROOT
ATOM      1  C   UNL     1       2.947  -0.737   1.051  1.00  0.00     0.133 A 
ATOM      2  C   UNL     1       2.144   0.122   1.768  1.00  0.00     0.115 A 
ATOM      3  C   UNL     1       1.021   0.591   1.128  1.00  0.00     0.218 A 
ATOM      4  N   UNL     1       0.682   0.252  -0.124  1.00  0.00    -0.199 NA
ATOM      5  C   UNL     1       1.513  -0.598  -0.742  1.00  0.00     0.131 A 
ATOM      6  C   UNL     1       1.158  -1.036  -2.128  1.00  0.00     0.090 C 
ATOM      7  N   UNL     1       2.625  -1.117  -0.192  1.00  0.00    -0.216 NA
ENDROOT
BRANCH   1   8
ATOM      8  N   UNL     1       4.096  -1.256   1.674  1.00  0.00    -0.363 N 
ATOM      9  H   UNL     1       4.628  -0.495   2.086  1.00  0.00     0.162 HD
BRANCH   8  10
ATOM     10  C   UNL     1       4.947  -2.092   0.809  1.00  0.00     0.184 C 
BRANCH  10  11
ATOM     11  C   UNL     1       5.754  -1.413  -0.267  1.00  0.00     0.136 A 
ATOM     12  C   UNL     1       7.972   1.087  -2.159  1.00  0.00     0.081 C 
ATOM     13  C   UNL     1       7.125   0.007  -1.595  1.00  0.00     0.114 A 
ATOM     14  N   UNL     1       6.766  -1.082  -2.240  1.00  0.00    -0.144 NA
ATOM     15  S   UNL     1       6.541   0.094   0.017  1.00  0.00    -0.100 S 
ATOM     16  N   UNL     1       5.977  -1.909  -1.468  1.00  0.00    -0.142 NA
ENDBRANCH  10  11
ENDBRANCH   8  10
ENDBRANCH   1   8
BRANCH   3  17
ATOM     17  O   UNL     1       0.224   1.450   1.857  1.00  0.00    -0.477 OA
BRANCH  17  18
ATOM     18  C   UNL     1      -0.917   1.960   1.160  1.00  0.00     0.235 C 
BRANCH  18  19
ATOM     19  C   UNL     1      -2.073   1.016   1.293  1.00  0.00     0.037 C 
ATOM     20  C   UNL     1      -2.847   0.919   2.584  1.00  0.00     0.018 C 
ATOM     21  C   UNL     1      -3.486   1.559   1.372  1.00  0.00     0.045 C 
BRANCH  21  22
ATOM     22  C   UNL     1      -4.621   0.903   0.610  1.00  0.00     0.044 A 
ATOM     23  C   UNL     1      -4.758  -0.481   0.472  1.00  0.00     0.024 A 
ATOM     24  N   UNL     1      -5.531   1.737   0.044  1.00  0.00    -0.261 NA
ATOM     25  C   UNL     1      -5.827  -1.014  -0.250  1.00  0.00     0.007 A 
ATOM     26  C   UNL     1      -6.560   1.200  -0.653  1.00  0.00     0.114 A 
ATOM     27  C   UNL     1      -6.750  -0.160  -0.842  1.00  0.00    -0.033 A 
ATOM     28  C   UNL     1      -7.930  -0.680  -1.597  1.00  0.00     0.046 C 
ENDBRANCH  21  22
ENDBRANCH  18  19
ENDBRANCH  17  18
ENDBRANCH   3  17
TORSDOF 7
