REMARK SMILES COc1ccc2c(Oc3ccc4c(C(=O)Nc5ccccc5N)cccc4c3)ccnc2c1
REMARK SMILES IDX 9 1 28 2 27 3 26 4 25 5 24 6 13 7 12 8 11 9 10 10 8 11 7 12
REMARK SMILES IDX 3 13 4 14 33 15 5 16 32 17 6 18 31 19 30 20 29 21 2 22 1 23
REMARK SMILES IDX 14 24 15 25 16 26 17 28 18 29 22 30 19 31 21 32 20 33 23 34
REMARK H PARENT 16 27 23 35 23 36
REMARK Flexibility Score: inf
ROOT
ATOM      1  C   UNL     1       1.048  -1.528  -0.824  1.00  0.00     0.128 A 
ATOM      2  C   UNL     1       0.412  -2.660  -1.332  1.00  0.00     0.055 A 
ATOM      3  C   UNL     1      -0.945  -2.902  -1.065  1.00  0.00    -0.014 A 
ATOM      4  C   UNL     1      -1.559  -4.070  -1.549  1.00  0.00     0.009 A 
ATOM      5  C   UNL     1      -2.899  -4.346  -1.280  1.00  0.00     0.001 A 
ATOM      6  C   UNL     1      -3.651  -3.445  -0.538  1.00  0.00     0.014 A 
ATOM      7  C   UNL     1      -3.063  -2.261  -0.068  1.00  0.00     0.048 A 
ATOM      8  C   UNL     1      -1.693  -1.970  -0.300  1.00  0.00    -0.005 A 
ATOM      9  C   UNL     1      -1.019  -0.824   0.193  1.00  0.00     0.013 A 
ATOM     10  C   UNL     1       0.334  -0.599  -0.074  1.00  0.00     0.048 A 
ENDROOT
BRANCH   1  11
ATOM     11  O   UNL     1       2.374  -1.353  -1.149  1.00  0.00    -0.457 OA
BRANCH  11  12
ATOM     12  C   UNL     1       3.243  -1.084  -0.104  1.00  0.00     0.138 A 
ATOM     13  C   UNL     1       6.099   2.005  -0.449  1.00  0.00     0.121 A 
ATOM     14  C   UNL     1       5.198   1.797  -1.491  1.00  0.00     0.047 A 
ATOM     15  C   UNL     1       6.029   1.192   0.685  1.00  0.00     0.075 A 
ATOM     16  C   UNL     1       4.245   0.781  -1.403  1.00  0.00     0.018 A 
ATOM     17  C   UNL     1       5.088   0.172   0.800  1.00  0.00     0.078 A 
ATOM     18  C   UNL     1       4.180  -0.042  -0.260  1.00  0.00     0.043 A 
ATOM     19  N   UNL     1       5.083  -0.577   1.918  1.00  0.00    -0.256 NA
ATOM     20  C   UNL     1       4.179  -1.576   2.018  1.00  0.00     0.115 A 
ATOM     21  C   UNL     1       3.251  -1.875   1.042  1.00  0.00     0.068 A 
BRANCH  13  22
ATOM     22  O   UNL     1       6.989   3.023  -0.655  1.00  0.00    -0.497 OA
ATOM     23  C   UNL     1       7.979   3.228   0.349  1.00  0.00     0.278 C 
ENDBRANCH  13  22
ENDBRANCH  11  12
ENDBRANCH   1  11
BRANCH   7  24
ATOM     24  C   UNL     1      -3.962  -1.341   0.669  1.00  0.00     0.256 C 
ATOM     25  O   UNL     1      -4.514  -1.756   1.680  1.00  0.00    -0.269 OA
ATOM     26  N   UNL     1      -4.119  -0.112   0.066  1.00  0.00    -0.320 N 
ATOM     27  H   UNL     1      -3.626   0.075  -0.803  1.00  0.00     0.170 HD
BRANCH  26  28
ATOM     28  C   UNL     1      -4.910   0.974   0.494  1.00  0.00     0.064 A 
ATOM     29  C   UNL     1      -5.638   0.989   1.682  1.00  0.00     0.028 A 
ATOM     30  C   UNL     1      -4.926   2.103  -0.355  1.00  0.00     0.055 A 
ATOM     31  C   UNL     1      -6.406   2.108   2.016  1.00  0.00     0.002 A 
ATOM     32  C   UNL     1      -5.734   3.199  -0.032  1.00  0.00     0.028 A 
ATOM     33  C   UNL     1      -6.458   3.208   1.160  1.00  0.00     0.002 A 
BRANCH  30  34
ATOM     34  N   UNL     1      -4.316   2.026  -1.635  1.00  0.00    -0.397 N 
ATOM     35  H   UNL     1      -4.941   1.524  -2.265  1.00  0.00     0.156 HD
ATOM     36  H   UNL     1      -4.152   2.956  -2.017  1.00  0.00     0.156 HD
ENDBRANCH  30  34
ENDBRANCH  26  28
ENDBRANCH   7  24
TORSDOF 6
