REMARK SMILES Cc1cc2nc3c(=O)[nH]c(=O)nc-3n(C[C@H](O)[C@H](O)[C@H](O)CO)c2cc1C
REMARK SMILES IDX 18 1 16 2 15 3 14 4 1 5 2 6 3 7 26 8 4 9 25 10 27 11 5 12
REMARK SMILES IDX 24 13 6 14 7 15 13 16 8 17 9 18 12 19 10 20 11 22 17 23
REMARK SMILES IDX 19 25 20 27 21 28 22 30 23 31
REMARK H PARENT 9 21 17 24 19 26 21 29 23 32
REMARK Flexibility Score: inf
ROOT
ATOM      1  C   UNL     1       2.802  -1.067   1.137  1.00  0.00     0.175 C 
ENDROOT
BRANCH   1   2
ATOM      2  C   UNL     1       1.731  -0.278   0.365  1.00  0.00     0.165 C 
BRANCH   2   3
ATOM      3  C   UNL     1       0.541   0.066   1.287  1.00  0.00     0.159 C 
BRANCH   3   4
ATOM      4  N   UNL     1      -0.516   0.792   0.552  1.00  0.00    -0.320 N 
ATOM      5  C   UNL     1      -5.349  -1.713  -1.348  1.00  0.00     0.044 C 
ATOM      6  C   UNL     1      -4.073  -1.101  -0.841  1.00  0.00    -0.046 A 
ATOM      7  C   UNL     1      -3.907   0.288  -0.897  1.00  0.00     0.034 A 
ATOM      8  C   UNL     1      -3.033  -1.886  -0.320  1.00  0.00    -0.046 A 
ATOM      9  C   UNL     1      -2.737   0.907  -0.440  1.00  0.00     0.088 A 
ATOM     10  C   UNL     1      -1.857  -1.260   0.143  1.00  0.00     0.032 A 
ATOM     11  C   UNL     1      -3.145  -3.386  -0.251  1.00  0.00     0.044 C 
ATOM     12  N   UNL     1      -2.678   2.307  -0.560  1.00  0.00    -0.237 NA
ATOM     13  C   UNL     1      -1.685   0.135   0.107  1.00  0.00     0.069 A 
ATOM     14  C   UNL     1      -1.593   2.913  -0.187  1.00  0.00     0.172 C 
ATOM     15  C   UNL     1      -1.490   4.411  -0.285  1.00  0.00     0.281 C 
ATOM     16  C   UNL     1      -0.404   2.167   0.370  1.00  0.00     0.170 C 
ATOM     17  O   UNL     1      -2.272   5.088  -0.931  1.00  0.00    -0.267 OA
ATOM     18  N   UNL     1      -0.400   4.914   0.356  1.00  0.00    -0.271 N 
ATOM     19  N   UNL     1       0.672   2.837   0.648  1.00  0.00    -0.173 NA
ATOM     20  C   UNL     1       0.750   4.186   0.443  1.00  0.00     0.349 C 
ATOM     21  H   UNL     1      -0.231   5.890   0.158  1.00  0.00     0.175 HD
ATOM     22  O   UNL     1       1.823   4.765   0.314  1.00  0.00    -0.246 OA
ENDBRANCH   3   4
ENDBRANCH   2   3
BRANCH   2  23
ATOM     23  O   UNL     1       1.305  -1.052  -0.762  1.00  0.00    -0.388 OA
ATOM     24  H   UNL     1       0.595  -0.543  -1.197  1.00  0.00     0.211 HD
ENDBRANCH   2  23
ENDBRANCH   1   2
BRANCH   1  25
ATOM     25  O   UNL     1       3.273  -0.304   2.256  1.00  0.00    -0.388 OA
ATOM     26  H   UNL     1       4.052  -0.805   2.581  1.00  0.00     0.211 HD
ENDBRANCH   1  25
BRANCH   1  27
ATOM     27  C   UNL     1       4.005  -1.496   0.280  1.00  0.00     0.171 C 
BRANCH  27  28
ATOM     28  O   UNL     1       4.951  -2.143   1.162  1.00  0.00    -0.388 OA
ATOM     29  H   UNL     1       5.757  -2.241   0.612  1.00  0.00     0.211 HD
ENDBRANCH  27  28
BRANCH  27  30
ATOM     30  C   UNL     1       4.735  -0.338  -0.409  1.00  0.00     0.190 C 
BRANCH  30  31
ATOM     31  O   UNL     1       5.909  -0.865  -1.039  1.00  0.00    -0.394 OA
ATOM     32  H   UNL     1       6.347  -0.114  -1.479  1.00  0.00     0.210 HD
ENDBRANCH  30  31
ENDBRANCH  27  30
ENDBRANCH   1  27
TORSDOF 9
