REMARK SMILES CCCN[C@H]1CCc2nc(N)sc2C1
REMARK SMILES IDX 4 1 3 3 2 4 1 5 5 6 6 7 14 8 7 9 13 10 8 11 12 12 9 13 10 14
REMARK SMILES IDX 11 15
REMARK H PARENT 4 2 11 16 11 17
REMARK Flexibility Score: inf
ROOT
ATOM      1  N   UNL     1       1.723   0.308   0.693  1.00  0.00    -0.314 NA
ATOM      2  H   UNL     1       1.959  -0.447   1.335  1.00  0.00     0.122 HD
ENDROOT
BRANCH   1   3
ATOM      3  C   UNL     1       2.359   0.078  -0.603  1.00  0.00     0.081 C 
BRANCH   3   4
ATOM      4  C   UNL     1       3.874  -0.110  -0.458  1.00  0.00     0.012 C 
ATOM      5  C   UNL     1       4.268  -1.382   0.280  1.00  0.00     0.005 C 
ENDBRANCH   3   4
ENDBRANCH   1   3
BRANCH   1   6
ATOM      6  C   UNL     1       0.259   0.475   0.664  1.00  0.00     0.059 C 
ATOM      7  C   UNL     1      -0.216   1.619  -0.269  1.00  0.00     0.026 C 
ATOM      8  C   UNL     1      -0.505  -0.851   0.377  1.00  0.00     0.067 C 
ATOM      9  C   UNL     1      -1.714   1.923  -0.078  1.00  0.00     0.059 C 
ATOM     10  C   UNL     1      -1.961  -0.572   0.212  1.00  0.00     0.031 A 
ATOM     11  C   UNL     1      -2.516   0.669  -0.017  1.00  0.00     0.057 A 
ATOM     12  S   UNL     1      -3.176  -1.761   0.240  1.00  0.00    -0.102 S 
ATOM     13  N   UNL     1      -3.887   0.684  -0.157  1.00  0.00    -0.225 NA
ATOM     14  C   UNL     1      -4.353  -0.538  -0.056  1.00  0.00     0.180 A 
BRANCH  14  15
ATOM     15  N   UNL     1      -5.661  -0.835  -0.151  1.00  0.00    -0.375 N 
ATOM     16  H   UNL     1      -6.278  -0.040  -0.024  1.00  0.00     0.159 HD
ATOM     17  H   UNL     1      -5.975  -1.672   0.323  1.00  0.00     0.159 HD
ENDBRANCH  14  15
ENDBRANCH   1   6
TORSDOF 4
