REMARK SMILES O=c1c(O)c(-c2ccc(O)c(OP(=O)(O)O)c2)oc2cc(O)cc(O)c12
REMARK SMILES IDX 6 1 17 2 11 3 9 4 8 5 7 6 5 7 21 8 23 9 20 10 24 11 19 12
REMARK SMILES IDX 26 13 18 14 2 15 1 16 3 17 22 18 25 20 4 22 12 24 13 25
REMARK SMILES IDX 14 26 15 27 16 29 10 31
REMARK H PARENT 22 19 25 21 4 23 15 28 16 30 10 32
REMARK Flexibility Score: inf
ROOT
ATOM      1  C   UNL     1      -0.393  -1.118   0.598  1.00  0.00     0.025 A 
ATOM      2  C   UNL     1       0.624  -1.933   0.071  1.00  0.00     0.063 A 
ATOM      3  C   UNL     1       0.565  -3.317   0.227  1.00  0.00     0.173 A 
ATOM      4  C   UNL     1      -0.526  -3.883   0.890  1.00  0.00     0.158 A 
ATOM      5  C   UNL     1      -1.545  -3.092   1.407  1.00  0.00     0.051 A 
ATOM      6  C   UNL     1      -1.479  -1.707   1.260  1.00  0.00     0.016 A 
ENDROOT
BRANCH   1   7
ATOM      7  C   UNL     1      -0.327   0.346   0.450  1.00  0.00     0.180 C 
ATOM      8  C   UNL     1      -2.553   3.972  -1.709  1.00  0.00     0.123 A 
ATOM      9  C   UNL     1      -1.635   4.896  -1.223  1.00  0.00     0.093 A 
ATOM     10  C   UNL     1      -2.437   2.624  -1.398  1.00  0.00     0.094 A 
ATOM     11  C   UNL     1      -0.584   4.455  -0.410  1.00  0.00     0.134 A 
ATOM     12  C   UNL     1      -1.387   2.190  -0.586  1.00  0.00     0.146 A 
ATOM     13  C   UNL     1      -0.452   3.096  -0.084  1.00  0.00     0.111 A 
ATOM     14  O   UNL     1      -1.349   0.844  -0.332  1.00  0.00    -0.452 OA
ATOM     15  C   UNL     1       0.635   2.567   0.775  1.00  0.00     0.238 C 
ATOM     16  O   UNL     1       1.500   3.279   1.272  1.00  0.00    -0.285 OA
ATOM     17  C   UNL     1       0.637   1.092   1.022  1.00  0.00     0.208 C 
BRANCH   8  18
ATOM     18  O   UNL     1      -3.594   4.350  -2.504  1.00  0.00    -0.508 OA
ATOM     19  H   UNL     1      -3.555   5.309  -2.655  1.00  0.00     0.293 HD
ENDBRANCH   8  18
BRANCH  11  20
ATOM     20  O   UNL     1       0.308   5.378   0.058  1.00  0.00    -0.507 OA
ATOM     21  H   UNL     1       0.089   6.268  -0.257  1.00  0.00     0.293 HD
ENDBRANCH  11  20
BRANCH  17  22
ATOM     22  O   UNL     1       1.637   0.584   1.838  1.00  0.00    -0.502 OA
ATOM     23  H   UNL     1       1.430  -0.336   2.067  1.00  0.00     0.293 HD
ENDBRANCH  17  22
ENDBRANCH   1   7
BRANCH   3  24
ATOM     24  O   UNL     1       1.522  -4.185  -0.222  1.00  0.00    -0.400 OA
BRANCH  24  25
ATOM     25  P   UNL     1       2.894  -3.744  -0.919  1.00  0.00     0.524 P 
ATOM     26  O   UNL     1       2.815  -2.941  -2.172  1.00  0.00    -0.216 OA
BRANCH  25  27
ATOM     27  O   UNL     1       3.746  -5.089  -1.034  1.00  0.00    -0.293 OA
ATOM     28  H   UNL     1       3.951  -5.461  -0.157  1.00  0.00     0.225 HD
ENDBRANCH  25  27
BRANCH  25  29
ATOM     29  O   UNL     1       3.733  -2.985   0.212  1.00  0.00    -0.293 OA
ATOM     30  H   UNL     1       4.348  -2.347  -0.203  1.00  0.00     0.225 HD
ENDBRANCH  25  29
ENDBRANCH  24  25
ENDBRANCH   3  24
BRANCH   4  31
ATOM     31  O   UNL     1      -0.624  -5.237   1.051  1.00  0.00    -0.504 OA
ATOM     32  H   UNL     1       0.123  -5.626   0.562  1.00  0.00     0.293 HD
ENDBRANCH   4  31
TORSDOF 9
