REMARK SMILES CCN1CCCC(OC(=O)C(c2ccccc2)c2ccccc2)C1
REMARK SMILES IDX 9 1 10 2 8 3 7 4 3 5 4 6 24 7 5 8 6 9 2 10 1 11 11 12 12 13
REMARK SMILES IDX 13 14 17 15 14 16 16 17 15 18 18 19 19 20 23 21 20 22 22 23
REMARK SMILES IDX 21 24
REMARK H PARENT
REMARK Flexibility Score: inf
ROOT
ATOM      1  C   UNL     1       0.697   0.805   0.015  1.00  0.00     0.318 C 
ATOM      2  O   UNL     1       0.448   1.085  -1.152  1.00  0.00    -0.251 OA
ENDROOT
BRANCH   1   3
ATOM      3  O   UNL     1      -0.242   0.783   1.011  1.00  0.00    -0.460 OA
BRANCH   3   4
ATOM      4  C   UNL     1      -1.586   1.110   0.610  1.00  0.00     0.190 C 
ATOM      5  N   UNL     1      -3.697  -0.209   0.044  1.00  0.00    -0.300 NA
ATOM      6  C   UNL     1      -4.325   1.099   0.239  1.00  0.00     0.085 C 
ATOM      7  C   UNL     1      -2.238  -0.063  -0.163  1.00  0.00     0.129 C 
ATOM      8  C   UNL     1      -3.842   1.727   1.553  1.00  0.00     0.019 C 
ATOM      9  C   UNL     1      -2.380   1.416   1.876  1.00  0.00     0.048 C 
BRANCH   5  10
ATOM     10  C   UNL     1      -4.290  -0.982  -1.056  1.00  0.00     0.081 C 
ATOM     11  C   UNL     1      -5.690  -1.491  -0.734  1.00  0.00     0.021 C 
ENDBRANCH   5  10
ENDBRANCH   3   4
ENDBRANCH   1   3
BRANCH   1  12
ATOM     12  C   UNL     1       2.057   0.372   0.573  1.00  0.00     0.159 C 
BRANCH  12  13
ATOM     13  C   UNL     1       3.236   1.087  -0.087  1.00  0.00    -0.029 A 
ATOM     14  C   UNL     1       3.522   0.937  -1.453  1.00  0.00     0.005 A 
ATOM     15  C   UNL     1       4.075   1.909   0.684  1.00  0.00     0.005 A 
ATOM     16  C   UNL     1       4.611   1.593  -2.032  1.00  0.00     0.000 A 
ATOM     17  C   UNL     1       5.164   2.564   0.104  1.00  0.00     0.000 A 
ATOM     18  C   UNL     1       5.431   2.406  -1.253  1.00  0.00     0.000 A 
ENDBRANCH  12  13
BRANCH  12  19
ATOM     19  C   UNL     1       2.229  -1.145   0.602  1.00  0.00    -0.029 A 
ATOM     20  C   UNL     1       1.736  -1.974  -0.420  1.00  0.00     0.005 A 
ATOM     21  C   UNL     1       2.929  -1.740   1.666  1.00  0.00     0.005 A 
ATOM     22  C   UNL     1       1.920  -3.357  -0.367  1.00  0.00     0.000 A 
ATOM     23  C   UNL     1       3.111  -3.124   1.716  1.00  0.00     0.000 A 
ATOM     24  C   UNL     1       2.605  -3.931   0.701  1.00  0.00     0.000 A 
ENDBRANCH  12  19
ENDBRANCH   1  12
TORSDOF 6
