REMARK SMILES COc1cc2c(cc1OC)[C@H]1C[C@@H](OC(=O)[C@@H](N)C(C)C)[C@H](CC(C)C)CN1CC2
REMARK SMILES IDX 14 1 13 2 3 3 4 4 8 5 5 6 7 7 6 8 30 9 11 10 29 11 12 12
REMARK SMILES IDX 28 13 27 14 22 15 2 16 1 17 9 18 10 19 23 20 24 21 25 22
REMARK SMILES IDX 26 23 15 24 16 25 17 26 18 27 19 30 20 31 21 32
REMARK H PARENT 18 28 18 29
REMARK Flexibility Score: inf
ROOT
ATOM      1  O   UNL     1      -1.821  -0.677   0.750  1.00  0.00    -0.461 OA
ENDROOT
BRANCH   1   2
ATOM      2  C   UNL     1      -0.934  -0.252  -0.307  1.00  0.00     0.182 C 
ATOM      3  C   UNL     1       5.720  -0.801  -0.085  1.00  0.00     0.161 A 
ATOM      4  C   UNL     1       5.322   0.068  -1.103  1.00  0.00     0.054 A 
ATOM      5  C   UNL     1       4.742  -1.435   0.705  1.00  0.00     0.161 A 
ATOM      6  C   UNL     1       3.962   0.313  -1.332  1.00  0.00    -0.038 A 
ATOM      7  C   UNL     1       3.381  -1.199   0.455  1.00  0.00     0.056 A 
ATOM      8  C   UNL     1       2.972  -0.323  -0.563  1.00  0.00    -0.023 A 
ATOM      9  C   UNL     1       3.507   1.219  -2.441  1.00  0.00     0.051 C 
ATOM     10  C   UNL     1       1.514  -0.043  -0.939  1.00  0.00     0.091 C 
ATOM     11  C   UNL     1       2.279   2.048  -2.030  1.00  0.00     0.090 C 
ATOM     12  C   UNL     1       0.504  -0.578   0.088  1.00  0.00     0.069 C 
ATOM     13  N   UNL     1       1.302   1.406  -1.128  1.00  0.00    -0.295 NA
ATOM     14  C   UNL     1      -0.068   1.761  -1.513  1.00  0.00     0.092 C 
ATOM     15  C   UNL     1      -1.108   1.263  -0.503  1.00  0.00     0.044 C 
BRANCH   3  16
ATOM     16  O   UNL     1       7.026  -1.099   0.217  1.00  0.00    -0.493 OA
ATOM     17  C   UNL     1       8.039  -0.502  -0.579  1.00  0.00     0.278 C 
ENDBRANCH   3  16
BRANCH   5  18
ATOM     18  O   UNL     1       5.214  -2.277   1.683  1.00  0.00    -0.493 OA
ATOM     19  C   UNL     1       4.271  -2.845   2.579  1.00  0.00     0.278 C 
ENDBRANCH   5  18
BRANCH  15  20
ATOM     20  C   UNL     1      -2.556   1.583  -0.947  1.00  0.00     0.011 C 
BRANCH  20  21
ATOM     21  C   UNL     1      -2.886   3.073  -1.169  1.00  0.00    -0.017 C 
ATOM     22  C   UNL     1      -4.341   3.215  -1.624  1.00  0.00     0.007 C 
ATOM     23  C   UNL     1      -2.654   3.915   0.086  1.00  0.00     0.007 C 
ENDBRANCH  20  21
ENDBRANCH  15  20
ENDBRANCH   1   2
BRANCH   1  24
ATOM     24  C   UNL     1      -2.222  -1.981   0.714  1.00  0.00     0.323 C 
ATOM     25  O   UNL     1      -1.864  -2.804  -0.119  1.00  0.00    -0.250 OA
BRANCH  24  26
ATOM     26  C   UNL     1      -3.210  -2.277   1.858  1.00  0.00     0.164 C 
BRANCH  26  27
ATOM     27  N   UNL     1      -2.690  -1.718   3.130  1.00  0.00    -0.318 NA
ATOM     28  H   UNL     1      -2.539  -0.715   2.995  1.00  0.00     0.119 HD
ATOM     29  H   UNL     1      -1.765  -2.110   3.309  1.00  0.00     0.119 HD
ENDBRANCH  26  27
BRANCH  26  30
ATOM     30  C   UNL     1      -4.613  -1.713   1.533  1.00  0.00     0.011 C 
ATOM     31  C   UNL     1      -5.172  -2.312   0.236  1.00  0.00     0.009 C 
ATOM     32  C   UNL     1      -5.610  -1.975   2.669  1.00  0.00     0.009 C 
ENDBRANCH  26  30
ENDBRANCH  24  26
ENDBRANCH   1  24
TORSDOF 9
