REMARK SMILES CC(C(=O)O)c1ccc2oc(-c3ccc(Cl)cc3)nc2c1
REMARK SMILES IDX 1 1 2 2 3 3 4 4 5 5 6 7 7 8 21 9 8 10 20 11 9 12 19 13 10 14
REMARK SMILES IDX 11 15 12 16 13 17 18 18 14 19 17 20 15 21 16 22
REMARK H PARENT 5 6
REMARK Flexibility Score: inf
ROOT
ATOM      1  C   UNL     1      -4.538   0.467   1.612  1.00  0.00     0.025 C 
ATOM      2  C   UNL     1      -3.938  -0.201   0.375  1.00  0.00     0.126 C 
ENDROOT
BRANCH   2   3
ATOM      3  C   UNL     1      -4.821   0.067  -0.833  1.00  0.00     0.310 C 
ATOM      4  O   UNL     1      -4.621   0.835  -1.759  1.00  0.00    -0.252 OA
BRANCH   3   5
ATOM      5  O   UNL     1      -5.962  -0.657  -0.801  1.00  0.00    -0.481 OA
ATOM      6  H   UNL     1      -6.430  -0.395  -1.623  1.00  0.00     0.296 HD
ENDBRANCH   3   5
ENDBRANCH   2   3
BRANCH   2   7
ATOM      7  C   UNL     1      -2.484   0.213   0.167  1.00  0.00    -0.032 A 
ATOM      8  C   UNL     1      -2.128   1.560  -0.056  1.00  0.00     0.008 A 
ATOM      9  C   UNL     1      -1.475  -0.776   0.210  1.00  0.00     0.037 A 
ATOM     10  C   UNL     1      -0.797   1.959  -0.240  1.00  0.00     0.050 A 
ATOM     11  C   UNL     1      -0.140  -0.390   0.029  1.00  0.00     0.110 A 
ATOM     12  C   UNL     1       0.148   0.946  -0.187  1.00  0.00     0.155 A 
ATOM     13  N   UNL     1       1.018  -1.124   0.024  1.00  0.00    -0.209 NA
ATOM     14  O   UNL     1       1.499   1.063  -0.332  1.00  0.00    -0.436 OA
ATOM     15  C   UNL     1       1.961  -0.223  -0.195  1.00  0.00     0.227 A 
BRANCH  15  16
ATOM     16  C   UNL     1       3.405  -0.416  -0.305  1.00  0.00     0.037 A 
ATOM     17  C   UNL     1       4.283   0.653  -0.544  1.00  0.00     0.015 A 
ATOM     18  C   UNL     1       3.943  -1.707  -0.171  1.00  0.00     0.015 A 
ATOM     19  C   UNL     1       5.662   0.437  -0.645  1.00  0.00     0.021 A 
ATOM     20  C   UNL     1       5.321  -1.925  -0.272  1.00  0.00     0.021 A 
ATOM     21  C   UNL     1       6.175  -0.851  -0.509  1.00  0.00     0.041 A 
ATOM     22  Cl  UNL     1       7.870  -1.115  -0.633  1.00  0.00    -0.084 Cl
ENDBRANCH  15  16
ENDBRANCH   2   7
TORSDOF 4
