REMARK SMILES Cc1cccc(Nc2ccncc2S(=O)(=O)NC(=O)NC(C)C)c1
REMARK SMILES IDX 8 1 9 2 10 3 11 4 12 5 13 6 7 7 6 9 1 10 2 11 3 12 24 13
REMARK SMILES IDX 4 14 5 15 14 16 15 17 16 18 17 19 18 20 19 22 20 23 21 25
REMARK SMILES IDX 22 26 23 27
REMARK H PARENT 7 8 17 21 20 24
REMARK Flexibility Score: inf
ROOT
ATOM      1  C   UNL     1       1.134  -1.691  -1.206  1.00  0.00     0.062 A 
ATOM      2  C   UNL     1       1.787  -1.161  -2.328  1.00  0.00     0.047 A 
ATOM      3  C   UNL     1       1.158  -1.174  -3.564  1.00  0.00     0.113 A 
ATOM      4  N   UNL     1      -0.069  -1.690  -3.773  1.00  0.00    -0.263 NA
ATOM      5  C   UNL     1      -0.684  -2.225  -2.694  1.00  0.00     0.135 A 
ATOM      6  C   UNL     1      -0.138  -2.235  -1.417  1.00  0.00     0.129 A 
ENDROOT
BRANCH   1   7
ATOM      7  N   UNL     1       1.786  -1.705   0.047  1.00  0.00    -0.354 N 
ATOM      8  H   UNL     1       1.256  -2.181   0.787  1.00  0.00     0.167 HD
BRANCH   7   9
ATOM      9  C   UNL     1       2.638  -0.739   0.630  1.00  0.00     0.039 A 
ATOM     10  C   UNL     1       3.521   2.964   0.410  1.00  0.00     0.044 C 
ATOM     11  C   UNL     1       3.512   1.532   0.855  1.00  0.00    -0.049 A 
ATOM     12  C   UNL     1       4.394   1.090   1.847  1.00  0.00     0.003 A 
ATOM     13  C   UNL     1       2.649   0.608   0.246  1.00  0.00     0.029 A 
ATOM     14  C   UNL     1       4.387  -0.244   2.247  1.00  0.00     0.002 A 
ATOM     15  C   UNL     1       3.511  -1.149   1.646  1.00  0.00     0.026 A 
ENDBRANCH   7   9
ENDBRANCH   1   7
BRANCH   6  16
ATOM     16  S   UNL     1      -1.098  -2.988  -0.155  1.00  0.00     0.269 S 
ATOM     17  O   UNL     1      -0.319  -3.079   1.062  1.00  0.00    -0.201 OA
ATOM     18  O   UNL     1      -1.701  -4.177  -0.725  1.00  0.00    -0.201 OA
BRANCH  16  19
ATOM     19  N   UNL     1      -2.363  -1.939   0.092  1.00  0.00    -0.231 N 
ATOM     20  C   UNL     1      -2.225  -0.620   0.487  1.00  0.00     0.328 C 
ATOM     21  H   UNL     1      -3.268  -2.353  -0.083  1.00  0.00     0.185 HD
ATOM     22  O   UNL     1      -1.144  -0.080   0.645  1.00  0.00    -0.248 OA
ATOM     23  N   UNL     1      -3.427   0.006   0.640  1.00  0.00    -0.335 N 
ATOM     24  H   UNL     1      -4.264  -0.481   0.359  1.00  0.00     0.165 HD
BRANCH  23  25
ATOM     25  C   UNL     1      -3.519   1.430   0.924  1.00  0.00     0.077 C 
ATOM     26  C   UNL     1      -4.837   1.741   1.626  1.00  0.00     0.030 C 
ATOM     27  C   UNL     1      -3.384   2.244  -0.361  1.00  0.00     0.030 C 
ENDBRANCH  23  25
ENDBRANCH  16  19
ENDBRANCH   6  16
TORSDOF 5
