REMARK SMILES CN1CCC[C@H]1c1cccnc1
REMARK SMILES IDX 1 1 2 2 3 3 4 4 5 5 6 6 7 7 8 8 12 9 9 10 11 11 10 12
REMARK H PARENT
REMARK Flexibility Score: inf
ROOT
ATOM      1  C   UNL     1      -1.157   1.405   1.105  1.00  0.00     0.106 C 
ATOM      2  N   UNL     1      -1.211  -0.062   1.138  1.00  0.00    -0.299 NA
ATOM      3  C   UNL     1      -2.550  -0.532   0.740  1.00  0.00     0.085 C 
ATOM      4  C   UNL     1      -2.530  -0.665  -0.779  1.00  0.00     0.017 C 
ATOM      5  C   UNL     1      -1.059  -0.594  -1.171  1.00  0.00     0.025 C 
ATOM      6  C   UNL     1      -0.306  -0.715   0.157  1.00  0.00     0.088 C 
ENDROOT
BRANCH   6   7
ATOM      7  C   UNL     1       1.139  -0.280   0.201  1.00  0.00    -0.012 A 
ATOM      8  C   UNL     1       1.862   0.149  -0.916  1.00  0.00     0.008 A 
ATOM      9  C   UNL     1       1.839  -0.350   1.407  1.00  0.00     0.116 A 
ATOM     10  C   UNL     1       3.204   0.501  -0.786  1.00  0.00     0.020 A 
ATOM     11  N   UNL     1       3.143  -0.019   1.563  1.00  0.00    -0.264 NA
ATOM     12  C   UNL     1       3.794   0.402   0.461  1.00  0.00     0.111 A 
ENDBRANCH   6   7
TORSDOF 1
