REMARK SMILES CS(=O)(=O)n1cc2c(n1)CN([C@H]1CO[C@H](c3cc(F)ccc3F)[C@@H](N)C1)C2
REMARK SMILES IDX 5 1 6 2 7 3 8 4 9 5 10 6 11 7 27 8 2 9 1 10 3 11 4 12 12 13
REMARK SMILES IDX 13 14 26 15 14 16 24 17 15 18 25 19 16 22 17 23 22 24 18 25
REMARK SMILES IDX 21 26 23 27 19 28 20 29
REMARK H PARENT 25 20 25 21
REMARK Flexibility Score: inf
ROOT
ATOM      1  N   UNL     1      -5.305   0.616   0.702  1.00  0.00    -0.165 N 
ATOM      2  C   UNL     1      -4.415   1.309   1.506  1.00  0.00     0.133 A 
ATOM      3  C   UNL     1      -3.181   0.953   1.043  1.00  0.00     0.010 A 
ATOM      4  C   UNL     1      -3.409   0.086  -0.012  1.00  0.00     0.082 A 
ATOM      5  N   UNL     1      -4.692  -0.136  -0.275  1.00  0.00    -0.161 NA
ATOM      6  C   UNL     1      -2.146  -0.371  -0.618  1.00  0.00     0.143 C 
ATOM      7  N   UNL     1      -1.139   0.096   0.400  1.00  0.00    -0.288 NA
ATOM      8  C   UNL     1      -1.745   1.168   1.255  1.00  0.00     0.124 C 
ENDROOT
BRANCH   1   9
ATOM      9  S   UNL     1      -7.008   0.790   0.887  1.00  0.00     0.250 S 
ATOM     10  C   UNL     1      -7.776  -0.380  -0.200  1.00  0.00     0.185 C 
ATOM     11  O   UNL     1      -7.274   0.399   2.260  1.00  0.00    -0.205 OA
ATOM     12  O   UNL     1      -7.295   2.133   0.414  1.00  0.00    -0.205 OA
ENDBRANCH   1   9
BRANCH   7  13
ATOM     13  C   UNL     1       0.177   0.442  -0.177  1.00  0.00     0.085 C 
ATOM     14  C   UNL     1       1.229   0.930   0.857  1.00  0.00     0.180 C 
ATOM     15  C   UNL     1       0.736  -0.753  -0.986  1.00  0.00     0.043 C 
ATOM     16  O   UNL     1       1.997  -0.129   1.415  1.00  0.00    -0.370 OA
ATOM     17  C   UNL     1       2.267  -0.736  -1.014  1.00  0.00     0.086 C 
ATOM     18  C   UNL     1       2.775  -0.864   0.457  1.00  0.00     0.168 C 
BRANCH  17  19
ATOM     19  N   UNL     1       2.764  -1.817  -1.881  1.00  0.00    -0.325 NA
ATOM     20  H   UNL     1       2.431  -1.675  -2.835  1.00  0.00     0.119 HD
ATOM     21  H   UNL     1       3.783  -1.776  -1.928  1.00  0.00     0.119 HD
ENDBRANCH  17  19
BRANCH  18  22
ATOM     22  C   UNL     1       4.241  -0.551   0.676  1.00  0.00     0.021 A 
ATOM     23  C   UNL     1       5.037  -1.447   1.413  1.00  0.00     0.048 A 
ATOM     24  C   UNL     1       4.845   0.621   0.205  1.00  0.00     0.129 A 
ATOM     25  C   UNL     1       6.384  -1.173   1.641  1.00  0.00     0.123 A 
ATOM     26  C   UNL     1       6.195   0.893   0.434  1.00  0.00     0.042 A 
ATOM     27  F   UNL     1       4.134   1.524  -0.484  1.00  0.00    -0.207 F 
ATOM     28  F   UNL     1       7.124  -2.042   2.339  1.00  0.00    -0.207 F 
ATOM     29  C   UNL     1       6.971  -0.011   1.155  1.00  0.00     0.042 A 
ENDBRANCH  18  22
ENDBRANCH   7  13
TORSDOF 4
