REMARK SMILES Cc1noc(NS(=O)(=O)c2ccc(N)cc2)c1C
REMARK SMILES IDX 7 1 8 2 9 3 6 4 5 6 1 7 2 8 3 9 17 10 4 11 18 12 10 13 11 14
REMARK SMILES IDX 16 15 12 16 15 17 13 18 14 19
REMARK H PARENT 6 5 14 20 14 21
REMARK Flexibility Score: inf
ROOT
ATOM      1  S   UNL     1       0.062  -2.059   0.349  1.00  0.00     0.264 S 
ATOM      2  O   UNL     1       0.205  -3.332  -0.330  1.00  0.00    -0.201 OA
ATOM      3  O   UNL     1      -0.478  -1.998   1.689  1.00  0.00    -0.201 OA
ENDROOT
BRANCH   1   4
ATOM      4  N   UNL     1      -0.839  -1.099  -0.693  1.00  0.00    -0.247 N 
ATOM      5  H   UNL     1      -1.287  -1.637  -1.430  1.00  0.00     0.183 HD
BRANCH   4   6
ATOM      6  C   UNL     1      -1.561   0.003  -0.091  1.00  0.00     0.241 A 
ATOM      7  C   UNL     1      -4.223   2.459   0.415  1.00  0.00     0.071 C 
ATOM      8  C   UNL     1      -3.040   1.567   0.369  1.00  0.00     0.086 A 
ATOM      9  N   UNL     1      -2.024   1.762   1.217  1.00  0.00    -0.082 NA
ATOM     10  C   UNL     1      -2.794   0.465  -0.497  1.00  0.00     0.037 A 
ATOM     11  O   UNL     1      -1.100   0.780   0.924  1.00  0.00    -0.337 OA
ATOM     12  C   UNL     1      -3.661  -0.062  -1.574  1.00  0.00     0.052 C 
ENDBRANCH   4   6
ENDBRANCH   1   4
BRANCH   1  13
ATOM     13  C   UNL     1       1.645  -1.259   0.321  1.00  0.00     0.088 A 
ATOM     14  C   UNL     1       2.564  -1.577  -0.681  1.00  0.00     0.024 A 
ATOM     15  C   UNL     1       1.991  -0.370   1.339  1.00  0.00     0.024 A 
ATOM     16  C   UNL     1       3.820  -0.964  -0.682  1.00  0.00     0.027 A 
ATOM     17  C   UNL     1       3.250   0.237   1.325  1.00  0.00     0.027 A 
ATOM     18  C   UNL     1       4.154  -0.014   0.288  1.00  0.00     0.031 A 
BRANCH  18  19
ATOM     19  N   UNL     1       5.453   0.504   0.348  1.00  0.00    -0.399 N 
ATOM     20  H   UNL     1       5.924   0.544  -0.550  1.00  0.00     0.156 HD
ATOM     21  H   UNL     1       5.525   1.377   0.860  1.00  0.00     0.156 HD
ENDBRANCH  18  19
ENDBRANCH   1  13
TORSDOF 4
