REMARK SMILES Cc1ncc([N+](=O)[O-])n1CC(O)CCl
REMARK SMILES IDX 10 1 9 2 1 3 2 4 3 5 4 6 5 7 6 8 7 9 8 10 11 11 12 12 13 14
REMARK SMILES IDX 14 15
REMARK H PARENT 12 13
REMARK Flexibility Score: inf
ROOT
ATOM      1  C   UNL     1       0.403  -0.042   0.771  1.00  0.00     0.277 C 
ENDROOT
BRANCH   1   2
ATOM      2  N   UNL     1      -0.839   0.183   0.043  1.00  0.00    -0.208 N 
ATOM      3  C   UNL     1      -1.601  -2.244   0.090  1.00  0.00     0.117 C 
ATOM      4  C   UNL     1      -1.760  -0.808  -0.266  1.00  0.00     0.193 A 
ATOM      5  N   UNL     1      -2.792  -0.309  -0.917  1.00  0.00    -0.213 NA
ATOM      6  C   UNL     1      -2.548   1.032  -1.045  1.00  0.00     0.218 A 
ATOM      7  C   UNL     1      -1.352   1.357  -0.455  1.00  0.00     0.342 A 
BRANCH   7   8
ATOM      8  N   UNL     1      -0.756   2.649  -0.381  1.00  0.00    -0.026 N 
ATOM      9  O   UNL     1       0.319   2.765   0.221  1.00  0.00    -0.358 OA
ATOM     10  O   UNL     1      -1.376   3.573  -0.920  1.00  0.00    -0.358 OA
ENDBRANCH   7   8
ENDBRANCH   1   2
BRANCH   1  11
ATOM     11  C   UNL     1       1.594  -0.306  -0.164  1.00  0.00     0.171 C 
BRANCH  11  12
ATOM     12  O   UNL     1       1.901   0.836  -0.967  1.00  0.00    -0.388 OA
ATOM     13  H   UNL     1       2.031   1.605  -0.373  1.00  0.00     0.211 HD
ENDBRANCH  11  12
BRANCH  11  14
ATOM     14  C   UNL     1       2.851  -0.762   0.585  1.00  0.00     0.145 C 
ATOM     15  Cl  UNL     1       3.382   0.428   1.802  1.00  0.00    -0.124 Cl
ENDBRANCH  11  14
ENDBRANCH   1  11
TORSDOF 5
