REMARK SMILES CC(C)N1CCN(Cc2cnc(-c3cc(-c4cccc5[nH]ccc45)cc4[nH]ncc34)o2)CC1
REMARK SMILES IDX 9 1 10 2 11 3 12 4 31 5 8 6 7 7 4 8 5 9 33 10 6 11 32 12
REMARK SMILES IDX 2 13 1 14 3 15 13 16 14 17 30 18 15 19 26 20 29 21 25 22
REMARK SMILES IDX 27 23 28 24 16 26 17 27 24 28 18 29 20 30 23 31 19 32 21 33
REMARK SMILES IDX 22 34
REMARK H PARENT 27 25 21 35
REMARK Flexibility Score: inf
ROOT
ATOM      1  C   UNL     1       1.298  -0.668   0.178  1.00  0.00     0.138 A 
ATOM      2  C   UNL     1       0.876  -1.392  -0.912  1.00  0.00     0.159 A 
ATOM      3  N   UNL     1      -0.469  -1.205  -1.109  1.00  0.00    -0.218 NA
ATOM      4  C   UNL     1      -0.822  -0.372  -0.145  1.00  0.00     0.227 A 
ATOM      5  O   UNL     1       0.206  -0.021   0.689  1.00  0.00    -0.440 OA
ENDROOT
BRANCH   1   6
ATOM      6  C   UNL     1       2.602  -0.482   0.867  1.00  0.00     0.161 C 
BRANCH   6   7
ATOM      7  N   UNL     1       3.075   0.913   0.795  1.00  0.00    -0.293 NA
ATOM      8  N   UNL     1       5.697   0.028   0.144  1.00  0.00    -0.298 NA
ATOM      9  C   UNL     1       5.141   1.054  -0.747  1.00  0.00     0.100 C 
ATOM     10  C   UNL     1       5.460   0.391   1.555  1.00  0.00     0.100 C 
ATOM     11  C   UNL     1       3.610   1.244  -0.547  1.00  0.00     0.100 C 
ATOM     12  C   UNL     1       4.129   1.153   1.798  1.00  0.00     0.100 C 
BRANCH   8  13
ATOM     13  C   UNL     1       7.088  -0.371  -0.117  1.00  0.00     0.050 C 
ATOM     14  C   UNL     1       8.083   0.784  -0.272  1.00  0.00     0.024 C 
ATOM     15  C   UNL     1       7.147  -1.283  -1.349  1.00  0.00     0.024 C 
ENDBRANCH   8  13
ENDBRANCH   6   7
ENDBRANCH   1   6
BRANCH   4  16
ATOM     16  C   UNL     1      -2.140   0.175   0.145  1.00  0.00     0.049 A 
ATOM     17  C   UNL     1      -3.283  -0.340  -0.503  1.00  0.00     0.023 A 
ATOM     18  C   UNL     1      -2.314   1.233   1.064  1.00  0.00     0.032 A 
ATOM     19  C   UNL     1      -4.573   0.151  -0.253  1.00  0.00    -0.015 A 
ATOM     20  C   UNL     1      -3.600   1.714   1.298  1.00  0.00     0.066 A 
ATOM     21  C   UNL     1      -1.497   2.042   1.896  1.00  0.00     0.144 A 
ATOM     22  C   UNL     1      -4.739   1.202   0.665  1.00  0.00     0.037 A 
ATOM     23  N   UNL     1      -3.459   2.721   2.215  1.00  0.00    -0.278 N 
ATOM     24  N   UNL     1      -2.192   2.942   2.598  1.00  0.00    -0.183 NA
ATOM     25  H   UNL     1      -4.189   3.297   2.617  1.00  0.00     0.190 HD
BRANCH  19  26
ATOM     26  C   UNL     1      -5.733  -0.415  -0.951  1.00  0.00    -0.009 A 
ATOM     27  C   UNL     1      -5.883  -0.294  -2.346  1.00  0.00     0.009 A 
ATOM     28  C   UNL     1      -6.737  -1.106  -0.224  1.00  0.00     0.007 A 
ATOM     29  C   UNL     1      -6.990  -0.826  -3.005  1.00  0.00     0.003 A 
ATOM     30  C   UNL     1      -7.834  -1.627  -0.916  1.00  0.00     0.046 A 
ATOM     31  C   UNL     1      -6.925  -1.448   1.150  1.00  0.00     0.028 A 
ATOM     32  C   UNL     1      -7.988  -1.501  -2.301  1.00  0.00     0.027 A 
ATOM     33  N   UNL     1      -8.650  -2.241   0.009  1.00  0.00    -0.361 N 
ATOM     34  C   UNL     1      -8.108  -2.140   1.261  1.00  0.00     0.083 A 
ATOM     35  H   UNL     1      -9.518  -2.706  -0.215  1.00  0.00     0.166 HD
ENDBRANCH  19  26
ENDBRANCH   4  16
TORSDOF 5
