REMARK SMILES Cn1cc(-c2nc(N[C@@H]3CCCC[C@@H]3N)c(F)c3c2C(=O)NC3)cn1
REMARK SMILES IDX 8 1 7 3 5 4 19 5 6 6 20 7 18 8 21 9 22 10 23 11 16 12 17 14
REMARK SMILES IDX 4 15 1 16 2 17 3 18 25 19 24 20 9 21 10 22 14 23 11 24 13 25
REMARK SMILES IDX 12 26 15 27
REMARK H PARENT 8 2 22 13 15 28 15 29
REMARK Flexibility Score: inf
ROOT
ATOM      1  N   UNL     1      -1.995  -1.646   0.536  1.00  0.00    -0.363 N 
ATOM      2  H   UNL     1      -2.451  -2.454   0.115  1.00  0.00     0.162 HD
ENDROOT
BRANCH   1   3
ATOM      3  C   UNL     1      -0.609  -1.765   0.359  1.00  0.00     0.163 A 
ATOM      4  C   UNL     1       1.526  -0.780   0.105  1.00  0.00     0.089 A 
ATOM      5  C   UNL     1       2.118  -2.021   0.188  1.00  0.00     0.074 A 
ATOM      6  N   UNL     1       0.162  -0.658   0.196  1.00  0.00    -0.227 NA
ATOM      7  C   UNL     1       3.509  -2.485   0.092  1.00  0.00     0.254 C 
ATOM      8  C   UNL     1       1.332  -3.156   0.375  1.00  0.00     0.026 A 
ATOM      9  O   UNL     1       4.504  -1.821  -0.104  1.00  0.00    -0.269 OA
ATOM     10  N   UNL     1       3.487  -3.855   0.256  1.00  0.00    -0.348 N 
ATOM     11  C   UNL     1       2.162  -4.384   0.441  1.00  0.00     0.156 C 
ATOM     12  C   UNL     1      -0.033  -3.036   0.472  1.00  0.00     0.171 A 
ATOM     13  H   UNL     1       4.341  -4.399   0.210  1.00  0.00     0.164 HD
ATOM     14  F   UNL     1      -0.793  -4.125   0.653  1.00  0.00    -0.203 F 
BRANCH   4  15
ATOM     15  C   UNL     1       2.234   0.475  -0.057  1.00  0.00     0.039 A 
ATOM     16  C   UNL     1       2.513   3.926  -1.079  1.00  0.00     0.173 C 
ATOM     17  N   UNL     1       2.626   2.576  -0.585  1.00  0.00    -0.275 N 
ATOM     18  C   UNL     1       1.698   1.584  -0.687  1.00  0.00     0.118 A 
ATOM     19  N   UNL     1       3.739   2.201   0.067  1.00  0.00    -0.181 NA
ATOM     20  C   UNL     1       3.498   0.925   0.389  1.00  0.00     0.145 A 
ENDBRANCH   4  15
ENDBRANCH   1   3
BRANCH   1  21
ATOM     21  C   UNL     1      -2.714  -0.396   0.207  1.00  0.00     0.097 C 
ATOM     22  C   UNL     1      -2.513   0.045  -1.249  1.00  0.00     0.026 C 
ATOM     23  C   UNL     1      -2.543   0.756   1.253  1.00  0.00     0.073 C 
ATOM     24  C   UNL     1      -3.340   1.286  -1.576  1.00  0.00     0.002 C 
ATOM     25  C   UNL     1      -2.231   2.101   0.585  1.00  0.00     0.021 C 
ATOM     26  C   UNL     1      -3.219   2.405  -0.539  1.00  0.00     0.002 C 
BRANCH  23  27
ATOM     27  N   UNL     1      -1.560   0.497   2.319  1.00  0.00    -0.326 NA
ATOM     28  H   UNL     1      -0.644   0.440   1.857  1.00  0.00     0.119 HD
ATOM     29  H   UNL     1      -1.712  -0.467   2.625  1.00  0.00     0.119 HD
ENDBRANCH  23  27
ENDBRANCH   1  21
TORSDOF 4
