REMARK SMILES CC(=O)NCC(=O)N1[C@@H]2CC[C@H]1c1ccc(Nc3ncc(C(F)(F)F)c(NC4CCC4)n3)cc12
REMARK SMILES IDX 8 1 12 2 11 3 10 4 9 5 34 6 13 7 14 8 15 9 16 10 33 11 6 12
REMARK SMILES IDX 7 13 5 14 4 15 1 16 2 17 3 18 17 20 18 22 19 23 32 24 20 25
REMARK SMILES IDX 26 26 21 27 27 28 28 30 29 31 31 32 30 33 22 34 23 35 24 36
REMARK SMILES IDX 25 37
REMARK H PARENT 4 19 17 21 27 29
REMARK Flexibility Score: inf
ROOT
ATOM      1  N   UNL     1       4.261   0.461   0.714  1.00  0.00    -0.327 N 
ATOM      2  C   UNL     1       3.981  -0.262   1.947  1.00  0.00     0.116 C 
ATOM      3  C   UNL     1       4.110   0.902   2.952  1.00  0.00     0.032 C 
ATOM      4  C   UNL     1       3.579   2.126   2.127  1.00  0.00     0.032 C 
ATOM      5  C   UNL     1       3.224   1.487   0.767  1.00  0.00     0.116 C 
ATOM      6  C   UNL     1       2.019   0.601   1.008  1.00  0.00    -0.018 A 
ATOM      7  C   UNL     1       2.495  -0.499   1.753  1.00  0.00    -0.020 A 
ATOM      8  C   UNL     1       1.651  -1.499   2.167  1.00  0.00     0.008 A 
ATOM      9  C   UNL     1       0.298  -1.385   1.813  1.00  0.00     0.026 A 
ATOM     10  C   UNL     1      -0.203  -0.294   1.063  1.00  0.00     0.041 A 
ATOM     11  C   UNL     1       0.689   0.721   0.665  1.00  0.00     0.032 A 
ENDROOT
BRANCH   1  12
ATOM     12  C   UNL     1       4.786  -0.151  -0.397  1.00  0.00     0.242 C 
ATOM     13  O   UNL     1       5.313  -1.265  -0.348  1.00  0.00    -0.273 OA
BRANCH  12  14
ATOM     14  C   UNL     1       4.659   0.614  -1.718  1.00  0.00     0.216 C 
BRANCH  14  15
ATOM     15  N   UNL     1       5.581   0.059  -2.695  1.00  0.00    -0.347 N 
ATOM     16  C   UNL     1       7.743  -0.171  -3.745  1.00  0.00     0.114 C 
ATOM     17  C   UNL     1       6.800   0.658  -2.915  1.00  0.00     0.217 C 
ATOM     18  O   UNL     1       7.109   1.760  -2.477  1.00  0.00    -0.275 OA
ATOM     19  H   UNL     1       5.553  -0.952  -2.779  1.00  0.00     0.164 HD
ENDBRANCH  14  15
ENDBRANCH  12  14
ENDBRANCH   1  12
BRANCH  10  20
ATOM     20  N   UNL     1      -1.552  -0.159   0.706  1.00  0.00    -0.324 N 
ATOM     21  H   UNL     1      -1.797   0.632   0.129  1.00  0.00     0.170 HD
BRANCH  20  22
ATOM     22  C   UNL     1      -2.696  -0.920   0.922  1.00  0.00     0.229 A 
ATOM     23  N   UNL     1      -2.689  -2.034   1.658  1.00  0.00    -0.221 NA
ATOM     24  N   UNL     1      -3.806  -0.446   0.336  1.00  0.00    -0.195 NA
ATOM     25  C   UNL     1      -3.858  -2.680   1.801  1.00  0.00     0.132 A 
ATOM     26  C   UNL     1      -4.966  -1.113   0.471  1.00  0.00     0.144 A 
ATOM     27  C   UNL     1      -5.037  -2.268   1.223  1.00  0.00     0.116 A 
BRANCH  26  28
ATOM     28  N   UNL     1      -6.140  -0.585  -0.118  1.00  0.00    -0.367 N 
ATOM     29  H   UNL     1      -6.645  -1.329  -0.601  1.00  0.00     0.162 HD
BRANCH  28  30
ATOM     30  C   UNL     1      -6.309   0.658  -0.816  1.00  0.00     0.080 C 
ATOM     31  C   UNL     1      -5.360   0.915  -2.002  1.00  0.00     0.025 C 
ATOM     32  C   UNL     1      -5.741   1.922  -0.144  1.00  0.00     0.025 C 
ATOM     33  C   UNL     1      -5.331   2.395  -1.557  1.00  0.00     0.004 C 
ENDBRANCH  28  30
ENDBRANCH  26  28
BRANCH  27  34
ATOM     34  C   UNL     1      -6.294  -3.020   1.454  1.00  0.00     0.421 C 
ATOM     35  F   UNL     1      -7.077  -2.471   2.421  1.00  0.00    -0.166 F 
ATOM     36  F   UNL     1      -6.080  -4.310   1.844  1.00  0.00    -0.166 F 
ATOM     37  F   UNL     1      -7.076  -3.109   0.339  1.00  0.00    -0.166 F 
ENDBRANCH  27  34
ENDBRANCH  20  22
ENDBRANCH  10  20
TORSDOF 8
