REMARK SMILES Cn1nnnc1SCC1=C(C(=O)O)N2C(=O)[C@@H](NC(=O)[C@H](O)c3ccccc3)[C@H]2SC1
REMARK SMILES IDX 9 1 10 2 14 3 15 4 16 5 17 6 29 7 30 8 31 9 8 10 7 11 6 12
REMARK SMILES IDX 1 13 2 14 3 15 4 16 5 17 11 18 12 19 13 20 18 22 19 23 20 25
REMARK SMILES IDX 21 26 22 27 23 29 24 30 28 31 25 32 27 33 26 34
REMARK H PARENT 13 21 18 24 22 28
REMARK Flexibility Score: inf
ROOT
ATOM      1  C   UNL     1      -2.527   1.105   1.185  1.00  0.00    -0.018 C 
ATOM      2  C   UNL     1      -2.230  -0.115   1.695  1.00  0.00     0.132 C 
ATOM      3  N   UNL     1      -0.942  -0.528   1.846  1.00  0.00    -0.289 N 
ATOM      4  C   UNL     1      -0.337  -1.734   1.786  1.00  0.00     0.253 C 
ATOM      5  O   UNL     1      -0.763  -2.865   1.774  1.00  0.00    -0.272 OA
ATOM      6  C   UNL     1       1.053  -1.045   1.628  1.00  0.00     0.205 C 
ATOM      7  C   UNL     1       0.239   0.284   1.636  1.00  0.00     0.181 C 
ATOM      8  S   UNL     1       0.026   1.179   0.073  1.00  0.00    -0.129 SA
ATOM      9  C   UNL     1      -1.466   2.048   0.647  1.00  0.00     0.106 C 
ENDROOT
BRANCH   1  10
ATOM     10  C   UNL     1      -3.930   1.675   1.149  1.00  0.00     0.112 C 
BRANCH  10  11
ATOM     11  S   UNL     1      -4.777   1.311  -0.415  1.00  0.00    -0.080 SA
BRANCH  11  12
ATOM     12  C   UNL     1      -4.850   2.857  -1.167  1.00  0.00     0.209 A 
ATOM     13  C   UNL     1      -7.241   2.728  -1.994  1.00  0.00     0.179 C 
ATOM     14  N   UNL     1      -5.952   3.336  -1.807  1.00  0.00    -0.224 N 
ATOM     15  N   UNL     1      -5.674   4.548  -2.324  1.00  0.00    -0.045 NA
ATOM     16  N   UNL     1      -4.437   4.814  -1.939  1.00  0.00    -0.023 NA
ATOM     17  N   UNL     1      -3.914   3.780  -1.199  1.00  0.00    -0.102 NA
ENDBRANCH  11  12
ENDBRANCH  10  11
ENDBRANCH   1  10
BRANCH   2  18
ATOM     18  C   UNL     1      -3.297  -1.072   2.112  1.00  0.00     0.352 C 
ATOM     19  O   UNL     1      -4.284  -1.396   1.477  1.00  0.00    -0.245 OA
BRANCH  18  20
ATOM     20  O   UNL     1      -3.063  -1.534   3.354  1.00  0.00    -0.477 OA
ATOM     21  H   UNL     1      -3.732  -2.242   3.468  1.00  0.00     0.297 HD
ENDBRANCH  18  20
ENDBRANCH   2  18
BRANCH   6  22
ATOM     22  N   UNL     1       1.823  -1.387   0.410  1.00  0.00    -0.339 N 
ATOM     23  C   UNL     1       2.987  -0.714   0.083  1.00  0.00     0.254 C 
ATOM     24  H   UNL     1       1.444  -1.995  -0.322  1.00  0.00     0.164 HD
ATOM     25  O   UNL     1       3.499   0.113   0.838  1.00  0.00    -0.272 OA
BRANCH  23  26
ATOM     26  C   UNL     1       3.542  -1.061  -1.314  1.00  0.00     0.233 C 
BRANCH  26  27
ATOM     27  O   UNL     1       2.688  -1.980  -2.014  1.00  0.00    -0.378 OA
ATOM     28  H   UNL     1       3.241  -2.719  -2.324  1.00  0.00     0.212 HD
ENDBRANCH  26  27
BRANCH  26  29
ATOM     29  C   UNL     1       4.954  -1.610  -1.246  1.00  0.00    -0.010 A 
ATOM     30  C   UNL     1       5.225  -2.849  -0.649  1.00  0.00     0.007 A 
ATOM     31  C   UNL     1       6.020  -0.870  -1.787  1.00  0.00     0.007 A 
ATOM     32  C   UNL     1       6.528  -3.349  -0.618  1.00  0.00     0.000 A 
ATOM     33  C   UNL     1       7.322  -1.368  -1.749  1.00  0.00     0.000 A 
ATOM     34  C   UNL     1       7.574  -2.612  -1.171  1.00  0.00     0.000 A 
ENDBRANCH  26  29
ENDBRANCH  23  26
ENDBRANCH   6  22
TORSDOF 9
