REMARK SMILES CC(=O)c1ccc2c(c1)N(CCCN1CCC(CCO)CC1)c1ccccc1S2
REMARK SMILES IDX 13 1 12 2 11 3 10 4 4 5 5 6 9 7 6 8 8 9 7 10 29 11 23 12
REMARK SMILES IDX 28 13 24 14 27 15 25 16 26 17 2 18 1 19 3 20 14 21 15 22
REMARK SMILES IDX 22 23 16 24 21 25 17 26 18 27 19 28 20 29
REMARK H PARENT 20 30
REMARK Flexibility Score: inf
ROOT
ATOM      1  C   UNL     1       0.567   0.468   1.792  1.00  0.00     0.086 C 
ENDROOT
BRANCH   1   2
ATOM      2  C   UNL     1      -0.366  -0.258   0.815  1.00  0.00     0.037 C 
BRANCH   2   3
ATOM      3  C   UNL     1      -1.760  -0.429   1.439  1.00  0.00     0.124 C 
BRANCH   3   4
ATOM      4  N   UNL     1      -2.716  -1.045   0.490  1.00  0.00    -0.340 N 
ATOM      5  C   UNL     1      -3.911   2.064  -1.307  1.00  0.00     0.019 A 
ATOM      6  C   UNL     1      -5.054   1.587  -1.940  1.00  0.00     0.013 A 
ATOM      7  C   UNL     1      -3.155   1.192  -0.506  1.00  0.00     0.039 A 
ATOM      8  C   UNL     1      -5.425   0.257  -1.776  1.00  0.00     0.018 A 
ATOM      9  C   UNL     1      -3.505  -0.167  -0.312  1.00  0.00     0.056 A 
ATOM     10  C   UNL     1      -4.663  -0.617  -0.978  1.00  0.00     0.036 A 
ATOM     11  S   UNL     1      -5.290  -2.273  -0.854  1.00  0.00    -0.086 SA
ATOM     12  C   UNL     1      -2.859  -2.464   0.547  1.00  0.00     0.055 A 
ATOM     13  C   UNL     1      -3.958  -3.122  -0.042  1.00  0.00     0.036 A 
ATOM     14  C   UNL     1      -1.899  -3.295   1.170  1.00  0.00     0.027 A 
ATOM     15  C   UNL     1      -4.081  -4.525   0.012  1.00  0.00     0.017 A 
ATOM     16  C   UNL     1      -2.024  -4.689   1.218  1.00  0.00     0.002 A 
ATOM     17  C   UNL     1      -3.118  -5.306   0.639  1.00  0.00     0.001 A 
BRANCH   5  18
ATOM     18  C   UNL     1      -3.530   3.495  -1.513  1.00  0.00     0.159 C 
ATOM     19  C   UNL     1      -2.262   4.014  -0.886  1.00  0.00     0.093 C 
ATOM     20  O   UNL     1      -4.250   4.229  -2.186  1.00  0.00    -0.295 OA
ENDBRANCH   5  18
ENDBRANCH   3   4
ENDBRANCH   2   3
ENDBRANCH   1   2
BRANCH   1  21
ATOM     21  N   UNL     1       1.941   0.689   1.334  1.00  0.00    -0.303 NA
ATOM     22  C   UNL     1       2.054   1.420   0.077  1.00  0.00     0.085 C 
ATOM     23  C   UNL     1       2.767  -0.526   1.361  1.00  0.00     0.085 C 
ATOM     24  C   UNL     1       3.481   1.957  -0.100  1.00  0.00     0.019 C 
ATOM     25  C   UNL     1       4.021  -0.435   0.476  1.00  0.00     0.019 C 
ATOM     26  C   UNL     1       4.563   0.996   0.434  1.00  0.00    -0.006 C 
BRANCH  26  27
ATOM     27  C   UNL     1       5.910   1.150  -0.300  1.00  0.00     0.032 C 
BRANCH  27  28
ATOM     28  C   UNL     1       5.962   0.632  -1.736  1.00  0.00     0.156 C 
BRANCH  28  29
ATOM     29  O   UNL     1       5.998  -0.787  -1.770  1.00  0.00    -0.396 OA
ATOM     30  H   UNL     1       6.800  -1.071  -1.299  1.00  0.00     0.210 HD
ENDBRANCH  28  29
ENDBRANCH  27  28
ENDBRANCH  26  27
ENDBRANCH   1  21
TORSDOF 8
