REMARK SMILES OC(CCCN1CCCCC1)(c1ccccc1)c1ccccc1
REMARK SMILES IDX 3 1 2 2 1 3 12 5 13 6 17 7 14 8 16 9 15 10 18 11 19 12 23 13
REMARK SMILES IDX 20 14 22 15 21 16 4 17 5 18 6 19 7 20 11 21 8 22 10 23 9 24
REMARK H PARENT 1 4
REMARK Flexibility Score: inf
ROOT
ATOM      1  C   UNL     1      -0.294   0.222   0.011  1.00  0.00     0.046 C 
ENDROOT
BRANCH   1   2
ATOM      2  C   UNL     1      -1.547  -0.337  -0.722  1.00  0.00     0.115 C 
BRANCH   2   3
ATOM      3  O   UNL     1      -1.046  -0.930  -1.936  1.00  0.00    -0.380 OA
ATOM      4  H   UNL     1      -1.080  -0.237  -2.619  1.00  0.00     0.212 HD
ENDBRANCH   2   3
BRANCH   2   5
ATOM      5  C   UNL     1      -2.562   0.741  -1.154  1.00  0.00    -0.012 A 
ATOM      6  C   UNL     1      -3.615   0.380  -2.018  1.00  0.00     0.007 A 
ATOM      7  C   UNL     1      -2.501   2.076  -0.722  1.00  0.00     0.007 A 
ATOM      8  C   UNL     1      -4.556   1.317  -2.447  1.00  0.00     0.000 A 
ATOM      9  C   UNL     1      -3.445   3.015  -1.151  1.00  0.00     0.000 A 
ATOM     10  C   UNL     1      -4.470   2.635  -2.011  1.00  0.00     0.000 A 
ENDBRANCH   2   5
BRANCH   2  11
ATOM     11  C   UNL     1      -2.237  -1.406   0.142  1.00  0.00    -0.012 A 
ATOM     12  C   UNL     1      -2.309  -2.750  -0.265  1.00  0.00     0.007 A 
ATOM     13  C   UNL     1      -2.824  -1.058   1.372  1.00  0.00     0.007 A 
ATOM     14  C   UNL     1      -2.941  -3.709   0.529  1.00  0.00     0.000 A 
ATOM     15  C   UNL     1      -3.457  -2.017   2.166  1.00  0.00     0.000 A 
ATOM     16  C   UNL     1      -3.514  -3.342   1.744  1.00  0.00     0.000 A 
ENDBRANCH   2  11
ENDBRANCH   1   2
BRANCH   1  17
ATOM     17  C   UNL     1       0.814  -0.821   0.251  1.00  0.00     0.019 C 
BRANCH  17  18
ATOM     18  C   UNL     1       1.964  -0.281   1.116  1.00  0.00     0.084 C 
BRANCH  18  19
ATOM     19  N   UNL     1       2.599   0.943   0.602  1.00  0.00    -0.303 NA
ATOM     20  C   UNL     1       3.325   0.749  -0.663  1.00  0.00     0.084 C 
ATOM     21  C   UNL     1       3.482   1.555   1.608  1.00  0.00     0.084 C 
ATOM     22  C   UNL     1       4.629  -0.041  -0.525  1.00  0.00     0.016 C 
ATOM     23  C   UNL     1       4.786   0.787   1.844  1.00  0.00     0.016 C 
ATOM     24  C   UNL     1       5.539   0.567   0.538  1.00  0.00     0.003 C 
ENDBRANCH  18  19
ENDBRANCH  17  18
ENDBRANCH   1  17
TORSDOF 7
