REMARK SMILES Cc1nc(-c2cnn(C)c2-c2ccc(C(F)(F)F)cn2)c2c(N3CCC3)ncnn12
REMARK SMILES IDX 9 1 8 2 7 3 6 4 5 5 10 6 11 7 20 8 12 9 19 10 13 11 14 12
REMARK SMILES IDX 15 13 16 14 17 15 18 16 4 17 21 18 3 19 30 20 22 21 2 22
REMARK SMILES IDX 29 23 27 24 23 25 1 26 28 27 24 28 26 29 25 30
REMARK H PARENT
REMARK Flexibility Score: inf
ROOT
ATOM      1  C   UNL     1       2.197   2.566  -2.455  1.00  0.00     0.174 C 
ATOM      2  N   UNL     1       1.060   1.708  -2.208  1.00  0.00    -0.266 N 
ATOM      3  N   UNL     1      -0.089   1.949  -2.880  1.00  0.00    -0.180 NA
ATOM      4  C   UNL     1      -0.914   0.998  -2.440  1.00  0.00     0.146 A 
ATOM      5  C   UNL     1      -0.301   0.158  -1.494  1.00  0.00     0.050 A 
ATOM      6  C   UNL     1       0.995   0.624  -1.358  1.00  0.00     0.096 A 
ENDROOT
BRANCH   6   7
ATOM      7  C   UNL     1       2.094   0.193  -0.508  1.00  0.00     0.089 A 
ATOM      8  N   UNL     1       2.693   1.189   0.187  1.00  0.00    -0.254 NA
ATOM      9  C   UNL     1       2.497  -1.132  -0.419  1.00  0.00     0.031 A 
ATOM     10  C   UNL     1       3.714   0.847   1.007  1.00  0.00     0.124 A 
ATOM     11  C   UNL     1       3.554  -1.455   0.431  1.00  0.00     0.017 A 
ATOM     12  C   UNL     1       4.186  -0.448   1.163  1.00  0.00     0.074 A 
BRANCH  12  13
ATOM     13  C   UNL     1       5.309  -0.726   2.113  1.00  0.00     0.417 C 
ATOM     14  F   UNL     1       5.938  -1.910   1.875  1.00  0.00    -0.166 F 
ATOM     15  F   UNL     1       6.282   0.226   2.073  1.00  0.00    -0.166 F 
ATOM     16  F   UNL     1       4.891  -0.778   3.408  1.00  0.00    -0.166 F 
ENDBRANCH  12  13
ENDBRANCH   6   7
BRANCH   5  17
ATOM     17  C   UNL     1      -0.971  -0.934  -0.809  1.00  0.00     0.106 A 
ATOM     18  C   UNL     1      -2.090  -0.913  -0.009  1.00  0.00     0.136 A 
ATOM     19  N   UNL     1      -0.476  -2.212  -0.923  1.00  0.00    -0.231 NA
ATOM     20  N   UNL     1      -2.299  -2.207   0.349  1.00  0.00    -0.212 N 
ATOM     21  C   UNL     1      -2.988   0.087   0.484  1.00  0.00     0.158 C 
ATOM     22  C   UNL     1      -1.300  -2.966  -0.217  1.00  0.00     0.128 A 
ATOM     23  N   UNL     1      -3.313  -2.631   1.124  1.00  0.00    -0.154 NA
ATOM     24  N   UNL     1      -3.972  -0.338   1.227  1.00  0.00    -0.215 NA
ATOM     25  N   UNL     1      -2.823   1.434   0.172  1.00  0.00    -0.355 N 
ATOM     26  C   UNL     1      -1.215  -4.433  -0.027  1.00  0.00     0.090 C 
ATOM     27  C   UNL     1      -4.095  -1.673   1.513  1.00  0.00     0.247 C 
ATOM     28  C   UNL     1      -1.798   2.110   0.946  1.00  0.00     0.120 C 
ATOM     29  C   UNL     1      -3.825   2.373   0.626  1.00  0.00     0.120 C 
ATOM     30  C   UNL     1      -2.909   2.720   1.798  1.00  0.00     0.043 C 
ENDBRANCH   5  17
TORSDOF 3
