REMARK SMILES CC(C(=O)O)c1ccc(N2CC=CC2)c(Cl)c1
REMARK SMILES IDX 1 1 2 2 3 3 4 4 5 5 6 7 7 8 17 9 8 10 15 11 9 12 16 13 10 14
REMARK SMILES IDX 11 15 14 16 12 17 13 18
REMARK H PARENT 5 6
REMARK Flexibility Score: inf
ROOT
ATOM      1  C   UNL     1      -3.848  -0.982  -0.819  1.00  0.00     0.025 C 
ATOM      2  C   UNL     1      -3.175   0.235  -0.181  1.00  0.00     0.126 C 
ENDROOT
BRANCH   2   3
ATOM      3  C   UNL     1      -3.791   0.516   1.181  1.00  0.00     0.310 C 
ATOM      4  O   UNL     1      -3.275   0.406   2.281  1.00  0.00    -0.252 OA
BRANCH   3   5
ATOM      5  O   UNL     1      -5.072   0.939   1.087  1.00  0.00    -0.481 OA
ATOM      6  H   UNL     1      -5.338   1.083   2.020  1.00  0.00     0.296 HD
ENDBRANCH   3   5
ENDBRANCH   2   3
BRANCH   2   7
ATOM      7  C   UNL     1      -1.663   0.074  -0.135  1.00  0.00    -0.032 A 
ATOM      8  C   UNL     1      -0.839   0.993  -0.790  1.00  0.00     0.007 A 
ATOM      9  C   UNL     1      -1.051  -0.986   0.545  1.00  0.00     0.027 A 
ATOM     10  C   UNL     1       0.556   0.856  -0.766  1.00  0.00     0.028 A 
ATOM     11  C   UNL     1       0.346  -1.121   0.567  1.00  0.00     0.064 A 
ATOM     12  C   UNL     1       1.192  -0.198  -0.090  1.00  0.00     0.056 A 
ATOM     13  Cl  UNL     1       0.969  -2.519   1.385  1.00  0.00    -0.082 Cl
BRANCH  12  14
ATOM     14  N   UNL     1       2.580  -0.309  -0.055  1.00  0.00    -0.363 N 
ATOM     15  C   UNL     1       3.225  -0.052   1.241  1.00  0.00     0.144 C 
ATOM     16  C   UNL     1       3.433   0.108  -1.170  1.00  0.00     0.144 C 
ATOM     17  C   UNL     1       4.613   0.322   0.836  1.00  0.00    -0.008 C 
ATOM     18  C   UNL     1       4.730   0.398  -0.492  1.00  0.00    -0.008 C 
ENDBRANCH  12  14
ENDBRANCH   2   7
TORSDOF 4
