REMARK SMILES CCOC(=O)CN[C@@H](C(=O)N1CC[C@H]1C(=O)NCc1ccc(/C(N)=N\O)cc1)C1CCCCC1
REMARK SMILES IDX 9 1 10 2 8 3 7 4 6 6 4 7 5 8 3 9 2 10 1 11 29 12 30 13 34 14
REMARK SMILES IDX 31 15 33 16 32 17 11 18 12 19 14 20 13 21 15 22 16 23 17 24
REMARK SMILES IDX 18 26 19 27 20 28 28 29 21 30 27 31 22 32 23 33 24 34 25 35
REMARK SMILES IDX 26 38
REMARK H PARENT 7 5 17 25 24 36 24 37 26 39
REMARK Flexibility Score: inf
ROOT
ATOM      1  C   UNL     1      -0.742   0.080   0.622  1.00  0.00     0.240 C 
ATOM      2  O   UNL     1       0.330   0.652   0.386  1.00  0.00    -0.273 OA
ENDROOT
BRANCH   1   3
ATOM      3  C   UNL     1      -1.919   0.164  -0.382  1.00  0.00     0.147 C 
BRANCH   3   4
ATOM      4  N   UNL     1      -3.031   0.938   0.217  1.00  0.00    -0.296 NA
ATOM      5  H   UNL     1      -3.168   0.646   1.190  1.00  0.00     0.124 HD
BRANCH   4   6
ATOM      6  C   UNL     1      -2.752   2.393   0.211  1.00  0.00     0.205 C 
BRANCH   6   7
ATOM      7  C   UNL     1      -3.418   3.056   1.414  1.00  0.00     0.319 C 
ATOM      8  O   UNL     1      -3.686   2.470   2.458  1.00  0.00    -0.251 OA
BRANCH   7   9
ATOM      9  O   UNL     1      -3.598   4.387   1.182  1.00  0.00    -0.465 OA
BRANCH   9  10
ATOM     10  C   UNL     1      -4.129   5.143   2.281  1.00  0.00     0.229 C 
ATOM     11  C   UNL     1      -5.642   5.059   2.310  1.00  0.00     0.049 C 
ENDBRANCH   9  10
ENDBRANCH   7   9
ENDBRANCH   6   7
ENDBRANCH   4   6
ENDBRANCH   3   4
BRANCH   3  12
ATOM     12  C   UNL     1      -2.420  -1.209  -0.899  1.00  0.00     0.016 C 
ATOM     13  C   UNL     1      -3.459  -1.034  -2.028  1.00  0.00     0.006 C 
ATOM     14  C   UNL     1      -1.252  -2.083  -1.398  1.00  0.00     0.006 C 
ATOM     15  C   UNL     1      -3.933  -2.377  -2.585  1.00  0.00     0.000 C 
ATOM     16  C   UNL     1      -1.733  -3.424  -1.953  1.00  0.00     0.000 C 
ATOM     17  C   UNL     1      -2.763  -3.232  -3.058  1.00  0.00     0.000 C 
ENDBRANCH   3  12
ENDBRANCH   1   3
BRANCH   1  18
ATOM     18  N   UNL     1      -0.916  -0.586   1.801  1.00  0.00    -0.329 N 
ATOM     19  C   UNL     1      -1.881  -1.540   2.308  1.00  0.00     0.123 C 
ATOM     20  C   UNL     1       0.146  -1.018   2.726  1.00  0.00     0.176 C 
ATOM     21  C   UNL     1      -0.999  -1.624   3.560  1.00  0.00     0.057 C 
BRANCH  20  22
ATOM     22  C   UNL     1       1.200  -1.991   2.085  1.00  0.00     0.243 C 
ATOM     23  O   UNL     1       1.170  -3.222   2.172  1.00  0.00    -0.273 OA
ATOM     24  N   UNL     1       2.171  -1.335   1.352  1.00  0.00    -0.350 N 
ATOM     25  H   UNL     1       1.982  -0.359   1.121  1.00  0.00     0.163 HD
BRANCH  24  26
ATOM     26  C   UNL     1       3.057  -2.070   0.484  1.00  0.00     0.151 C 
BRANCH  26  27
ATOM     27  C   UNL     1       4.080  -1.157  -0.137  1.00  0.00    -0.029 A 
ATOM     28  C   UNL     1       5.337  -0.982   0.458  1.00  0.00     0.006 A 
ATOM     29  C   UNL     1       3.768  -0.438  -1.301  1.00  0.00     0.006 A 
ATOM     30  C   UNL     1       6.278  -0.121  -0.113  1.00  0.00     0.012 A 
ATOM     31  C   UNL     1       4.706   0.423  -1.874  1.00  0.00     0.012 A 
ATOM     32  C   UNL     1       5.966   0.569  -1.286  1.00  0.00     0.020 A 
BRANCH  32  33
ATOM     33  C   UNL     1       6.934   1.531  -1.889  1.00  0.00     0.170 C 
ATOM     34  N   UNL     1       6.471   2.791  -2.183  1.00  0.00    -0.380 N 
ATOM     35  N   UNL     1       8.187   1.280  -2.160  1.00  0.00    -0.071 NA
ATOM     36  H   UNL     1       7.236   3.439  -2.355  1.00  0.00     0.158 HD
ATOM     37  H   UNL     1       5.787   3.158  -1.531  1.00  0.00     0.158 HD
BRANCH  35  38
ATOM     38  O   UNL     1       8.545  -0.044  -1.892  1.00  0.00    -0.409 OA
ATOM     39  H   UNL     1       9.443  -0.094  -2.266  1.00  0.00     0.330 HD
ENDBRANCH  35  38
ENDBRANCH  32  33
ENDBRANCH  26  27
ENDBRANCH  24  26
ENDBRANCH  20  22
ENDBRANCH   1  18
TORSDOF 13
