REMARK SMILES O=C1Nc2ccc(CN3C(=O)CSC3=O)cc2/C1=C/c1cc(CN2CCOCC2)c[nH]1
REMARK SMILES IDX 7 1 16 2 17 3 4 4 3 5 2 6 1 7 18 8 19 9 5 10 6 11 8 13 9 14
REMARK SMILES IDX 11 15 10 16 12 17 13 18 14 19 15 20 20 21 21 22 31 23 22 24
REMARK SMILES IDX 30 25 23 27 24 28 25 29 29 30 26 31 28 32 27 33
REMARK H PARENT 3 12 31 26
REMARK Flexibility Score: inf
ROOT
ATOM      1  C   UNL     1      -4.142   1.476  -0.179  1.00  0.00    -0.027 A 
ATOM      2  C   UNL     1      -2.893   0.918   0.155  1.00  0.00     0.016 A 
ATOM      3  C   UNL     1      -2.159   0.286  -0.837  1.00  0.00     0.011 A 
ATOM      4  C   UNL     1      -2.665   0.199  -2.135  1.00  0.00     0.049 A 
ATOM      5  N   UNL     1      -1.772  -0.467  -2.964  1.00  0.00    -0.321 N 
ATOM      6  C   UNL     1      -0.629  -0.857  -2.277  1.00  0.00     0.256 C 
ATOM      7  O   UNL     1       0.300  -1.472  -2.761  1.00  0.00    -0.269 OA
ATOM      8  C   UNL     1      -0.837  -0.369  -0.860  1.00  0.00     0.051 C 
ATOM      9  C   UNL     1      -0.054  -0.479   0.224  1.00  0.00     0.040 C 
ATOM     10  C   UNL     1      -3.888   0.724  -2.496  1.00  0.00     0.027 A 
ATOM     11  C   UNL     1      -4.629   1.369  -1.502  1.00  0.00     0.008 A 
ATOM     12  H   UNL     1      -1.904  -0.662  -3.944  1.00  0.00     0.170 HD
ENDROOT
BRANCH   1  13
ATOM     13  C   UNL     1      -4.976   2.162   0.881  1.00  0.00     0.165 C 
BRANCH  13  14
ATOM     14  N   UNL     1      -5.882   1.235   1.527  1.00  0.00    -0.268 N 
ATOM     15  O   UNL     1      -7.642   1.592   0.079  1.00  0.00    -0.273 OA
ATOM     16  C   UNL     1      -7.151   1.023   1.048  1.00  0.00     0.240 C 
ATOM     17  C   UNL     1      -7.898  -0.007   1.854  1.00  0.00     0.180 C 
ATOM     18  S   UNL     1      -6.783  -0.518   3.174  1.00  0.00    -0.054 SA
ATOM     19  C   UNL     1      -5.492   0.521   2.622  1.00  0.00     0.289 C 
ATOM     20  O   UNL     1      -4.408   0.567   3.180  1.00  0.00    -0.261 OA
ENDBRANCH  13  14
ENDBRANCH   1  13
BRANCH   9  21
ATOM     21  C   UNL     1       1.241  -1.050   0.265  1.00  0.00     0.039 A 
ATOM     22  C   UNL     1       2.312  -1.146  -0.602  1.00  0.00     0.032 A 
ATOM     23  N   UNL     1       1.634  -1.651   1.440  1.00  0.00    -0.361 N 
ATOM     24  C   UNL     1       3.387  -1.810   0.060  1.00  0.00    -0.016 A 
ATOM     25  C   UNL     1       2.915  -2.123   1.323  1.00  0.00     0.087 A 
ATOM     26  H   UNL     1       1.056  -1.755   2.263  1.00  0.00     0.166 HD
BRANCH  24  27
ATOM     27  C   UNL     1       4.729  -2.152  -0.519  1.00  0.00     0.121 C 
BRANCH  27  28
ATOM     28  N   UNL     1       5.739  -1.100  -0.361  1.00  0.00    -0.294 NA
ATOM     29  C   UNL     1       5.537   0.061  -1.243  1.00  0.00     0.113 C 
ATOM     30  C   UNL     1       6.025  -0.697   1.025  1.00  0.00     0.113 C 
ATOM     31  C   UNL     1       6.423   1.239  -0.809  1.00  0.00     0.175 C 
ATOM     32  C   UNL     1       5.528   0.721   1.351  1.00  0.00     0.175 C 
ATOM     33  O   UNL     1       6.105   1.727   0.502  1.00  0.00    -0.379 OA
ENDBRANCH  27  28
ENDBRANCH  24  27
ENDBRANCH   9  21
TORSDOF 5
