REMARK SMILES Oc1ncc(N(CCCl)CCCl)c(O)n1
REMARK SMILES IDX 6 1 5 2 2 3 3 4 15 5 4 6 13 7 1 8 14 10 7 12 8 13 9 14 10 15
REMARK SMILES IDX 11 16 12 17
REMARK H PARENT 1 9 14 11
REMARK Flexibility Score: inf
ROOT
ATOM      1  N   UNL     1      -0.636  -0.355   0.193  1.00  0.00    -0.364 N 
ENDROOT
BRANCH   1   2
ATOM      2  C   UNL     1       0.627   0.220   0.009  1.00  0.00     0.119 A 
ATOM      3  C   UNL     1       3.147   1.185  -0.343  1.00  0.00     0.317 A 
ATOM      4  N   UNL     1       3.051  -0.105  -0.037  1.00  0.00    -0.201 NA
ATOM      5  N   UNL     1       2.156   2.057  -0.500  1.00  0.00    -0.158 NA
ATOM      6  C   UNL     1       1.783  -0.549   0.126  1.00  0.00     0.148 A 
ATOM      7  C   UNL     1       0.932   1.539  -0.318  1.00  0.00     0.241 A 
BRANCH   3   8
ATOM      8  O   UNL     1       4.416   1.638  -0.509  1.00  0.00    -0.479 OA
ATOM      9  H   UNL     1       4.895   0.810  -0.340  1.00  0.00     0.297 HD
ENDBRANCH   3   8
BRANCH   7  10
ATOM     10  O   UNL     1      -0.028   2.490  -0.467  1.00  0.00    -0.492 OA
ATOM     11  H   UNL     1       0.533   3.266  -0.654  1.00  0.00     0.295 HD
ENDBRANCH   7  10
ENDBRANCH   1   2
BRANCH   1  12
ATOM     12  C   UNL     1      -1.843   0.305  -0.362  1.00  0.00     0.133 C 
BRANCH  12  13
ATOM     13  C   UNL     1      -1.855   0.304  -1.892  1.00  0.00     0.131 C 
ATOM     14  Cl  UNL     1      -3.400   0.948  -2.508  1.00  0.00    -0.125 Cl
ENDBRANCH  12  13
ENDBRANCH   1  12
BRANCH   1  15
ATOM     15  C   UNL     1      -0.835  -0.969   1.530  1.00  0.00     0.133 C 
BRANCH  15  16
ATOM     16  C   UNL     1      -1.303  -2.418   1.388  1.00  0.00     0.131 C 
ATOM     17  Cl  UNL     1      -1.542  -3.164   2.986  1.00  0.00    -0.125 Cl
ENDBRANCH  15  16
ENDBRANCH   1  15
TORSDOF 7
