REMARK SMILES COc1c(N2CCNC(C)C2)c(F)cc2c(=O)c(C(=O)O)cn(C3CC3)c12
REMARK SMILES IDX 3 1 4 2 12 3 13 4 14 5 15 6 16 7 17 8 18 9 22 10 23 11 27 12
REMARK SMILES IDX 2 13 1 14 5 15 6 16 11 17 7 18 9 19 8 20 10 21 24 23 25 24
REMARK SMILES IDX 26 25 19 26 20 27 21 28
REMARK H PARENT 8 22 21 29
REMARK Flexibility Score: inf
ROOT
ATOM      1  C   UNL     1      -0.261  -0.022  -0.467  1.00  0.00     0.169 A 
ATOM      2  C   UNL     1       0.942   0.743  -0.420  1.00  0.00     0.118 A 
ATOM      3  C   UNL     1       0.812   2.103  -0.092  1.00  0.00     0.151 A 
ATOM      4  F   UNL     1       1.891   2.894   0.012  1.00  0.00    -0.205 F 
ATOM      5  C   UNL     1      -0.422   2.685   0.170  1.00  0.00     0.056 A 
ATOM      6  C   UNL     1      -1.579   1.903   0.142  1.00  0.00     0.053 A 
ATOM      7  C   UNL     1      -2.880   2.565   0.422  1.00  0.00     0.204 C 
ATOM      8  O   UNL     1      -2.900   3.728   0.810  1.00  0.00    -0.288 OA
ATOM      9  C   UNL     1      -4.110   1.765   0.237  1.00  0.00     0.124 C 
ATOM     10  C   UNL     1      -3.953   0.452   0.024  1.00  0.00     0.106 C 
ATOM     11  N   UNL     1      -2.749  -0.222  -0.079  1.00  0.00    -0.340 N 
ATOM     12  C   UNL     1      -1.529   0.522  -0.136  1.00  0.00     0.097 A 
ENDROOT
BRANCH   1  13
ATOM     13  O   UNL     1      -0.183  -1.344  -0.861  1.00  0.00    -0.492 OA
ATOM     14  C   UNL     1      -0.031  -1.434  -2.280  1.00  0.00     0.278 C 
ENDBRANCH   1  13
BRANCH   2  15
ATOM     15  N   UNL     1       2.186   0.122  -0.672  1.00  0.00    -0.363 N 
ATOM     16  C   UNL     1       3.298   0.917  -1.236  1.00  0.00     0.132 C 
ATOM     17  C   UNL     1       2.580  -0.804   0.421  1.00  0.00     0.135 C 
ATOM     18  C   UNL     1       4.395   1.189  -0.186  1.00  0.00     0.102 C 
ATOM     19  C   UNL     1       4.085  -1.184   0.329  1.00  0.00     0.070 C 
ATOM     20  N   UNL     1       5.008  -0.028   0.385  1.00  0.00    -0.311 NA
ATOM     21  C   UNL     1       4.454  -2.179   1.430  1.00  0.00     0.026 C 
ATOM     22  H   UNL     1       5.272   0.170   1.350  1.00  0.00     0.123 HD
ENDBRANCH   2  15
BRANCH  11  23
ATOM     23  C   UNL     1      -2.797  -1.696  -0.122  1.00  0.00     0.087 C 
ATOM     24  C   UNL     1      -2.177  -2.538   0.968  1.00  0.00     0.027 C 
ATOM     25  C   UNL     1      -3.663  -2.506   0.818  1.00  0.00     0.027 C 
ENDBRANCH  11  23
BRANCH   9  26
ATOM     26  C   UNL     1      -5.477   2.292   0.295  1.00  0.00     0.341 C 
ATOM     27  O   UNL     1      -6.475   1.652   0.582  1.00  0.00    -0.246 OA
BRANCH  26  28
ATOM     28  O   UNL     1      -5.568   3.577  -0.078  1.00  0.00    -0.477 OA
ATOM     29  H   UNL     1      -6.515   3.803   0.021  1.00  0.00     0.297 HD
ENDBRANCH  26  28
ENDBRANCH   9  26
TORSDOF 5
