REMARK SMILES O=P(O)(O)C(O)(Cn1ccnc1)P(=O)(O)O
REMARK SMILES IDX 5 1 2 2 1 3 3 4 4 6 6 8 7 10 8 11 9 12 12 13 10 14 11 15
REMARK SMILES IDX 13 16 14 17 15 18 16 20
REMARK H PARENT 3 5 4 7 6 9 15 19 16 21
REMARK Flexibility Score: inf
ROOT
ATOM      1  C   UNL     1      -0.765   0.258   0.420  1.00  0.00     0.285 C 
ENDROOT
BRANCH   1   2
ATOM      2  P   UNL     1      -1.148  -1.456  -0.060  1.00  0.00     0.371 P 
ATOM      3  O   UNL     1      -2.543  -1.906   0.218  1.00  0.00    -0.256 OA
BRANCH   2   4
ATOM      4  O   UNL     1      -0.059  -2.402   0.646  1.00  0.00    -0.322 OA
ATOM      5  H   UNL     1       0.727  -1.976   1.048  1.00  0.00     0.221 HD
ENDBRANCH   2   4
BRANCH   2   6
ATOM      6  O   UNL     1      -0.730  -1.628  -1.597  1.00  0.00    -0.322 OA
ATOM      7  H   UNL     1      -0.995  -2.510  -1.928  1.00  0.00     0.221 HD
ENDBRANCH   2   6
ENDBRANCH   1   2
BRANCH   1   8
ATOM      8  O   UNL     1      -0.499   0.232   1.857  1.00  0.00    -0.366 OA
ATOM      9  H   UNL     1      -1.349   0.003   2.292  1.00  0.00     0.213 HD
ENDBRANCH   1   8
BRANCH   1  10
ATOM     10  C   UNL     1       0.446   0.849  -0.309  1.00  0.00     0.185 C 
BRANCH  10  11
ATOM     11  N   UNL     1       1.676   0.107  -0.129  1.00  0.00    -0.333 N 
ATOM     12  C   UNL     1       2.283  -0.702  -1.046  1.00  0.00     0.107 A 
ATOM     13  C   UNL     1       2.445   0.100   1.001  1.00  0.00     0.199 A 
ATOM     14  C   UNL     1       3.377  -1.221  -0.395  1.00  0.00     0.130 A 
ATOM     15  N   UNL     1       3.453  -0.733   0.884  1.00  0.00    -0.245 NA
ENDBRANCH  10  11
ENDBRANCH   1  10
BRANCH   1  16
ATOM     16  P   UNL     1      -2.182   1.394   0.208  1.00  0.00     0.371 P 
ATOM     17  O   UNL     1      -3.363   1.197   1.098  1.00  0.00    -0.256 OA
BRANCH  16  18
ATOM     18  O   UNL     1      -1.603   2.882   0.397  1.00  0.00    -0.322 OA
ATOM     19  H   UNL     1      -2.305   3.546   0.541  1.00  0.00     0.221 HD
ENDBRANCH  16  18
BRANCH  16  20
ATOM     20  O   UNL     1      -2.564   1.433  -1.345  1.00  0.00    -0.322 OA
ATOM     21  H   UNL     1      -3.437   1.837  -1.520  1.00  0.00     0.221 HD
ENDBRANCH  16  20
ENDBRANCH   1  16
TORSDOF 9
