REMARK SMILES Nc1nc2c(ncn2COC(CO)CO)c(=O)[nH]1
REMARK SMILES IDX 11 1 10 2 9 3 8 4 1 5 2 6 3 9 18 10 4 11 16 12 5 14 17 15
REMARK SMILES IDX 6 16 7 17 12 18 13 19 14 21 15 22
REMARK H PARENT 1 7 1 8 18 13 13 20 15 23
REMARK Flexibility Score: inf
ROOT
ATOM      1  C   UNL     1      -2.721  -0.163  -0.328  1.00  0.00     0.171 C 
ENDROOT
BRANCH   1   2
ATOM      2  O   UNL     1      -1.586  -0.160   0.545  1.00  0.00    -0.353 OA
BRANCH   2   3
ATOM      3  C   UNL     1      -0.385   0.269  -0.099  1.00  0.00     0.288 C 
BRANCH   3   4
ATOM      4  N   UNL     1       0.748   0.014   0.769  1.00  0.00    -0.291 N 
ATOM      5  N   UNL     1       4.445   0.474  -2.132  1.00  0.00    -0.369 N 
ATOM      6  C   UNL     1       3.829   0.250  -0.943  1.00  0.00     0.202 C 
ATOM      7  H   UNL     1       3.793   0.452  -2.910  1.00  0.00     0.159 HD
ATOM      8  H   UNL     1       5.283  -0.061  -2.314  1.00  0.00     0.159 HD
ATOM      9  N   UNL     1       2.525   0.285  -0.868  1.00  0.00    -0.195 NA
ATOM     10  N   UNL     1       4.656  -0.014   0.130  1.00  0.00    -0.291 N 
ATOM     11  C   UNL     1       2.058   0.040   0.380  1.00  0.00     0.171 A 
ATOM     12  C   UNL     1       4.217  -0.252   1.426  1.00  0.00     0.280 C 
ATOM     13  H   UNL     1       5.655   0.025   0.020  1.00  0.00     0.173 HD
ATOM     14  C   UNL     1       2.774  -0.224   1.525  1.00  0.00     0.173 A 
ATOM     15  O   UNL     1       5.000  -0.454   2.349  1.00  0.00    -0.267 OA
ATOM     16  N   UNL     1       1.947  -0.411   2.603  1.00  0.00    -0.229 NA
ATOM     17  C   UNL     1       0.732  -0.256   2.113  1.00  0.00     0.204 A 
ENDBRANCH   3   4
ENDBRANCH   2   3
ENDBRANCH   1   2
BRANCH   1  18
ATOM     18  C   UNL     1      -3.252   1.257  -0.596  1.00  0.00     0.190 C 
BRANCH  18  19
ATOM     19  O   UNL     1      -4.289   1.257  -1.570  1.00  0.00    -0.394 OA
ATOM     20  H   UNL     1      -4.963   0.613  -1.263  1.00  0.00     0.210 HD
ENDBRANCH  18  19
ENDBRANCH   1  18
BRANCH   1  21
ATOM     21  C   UNL     1      -3.809  -1.025   0.334  1.00  0.00     0.190 C 
BRANCH  21  22
ATOM     22  O   UNL     1      -4.959  -1.148  -0.500  1.00  0.00    -0.394 OA
ATOM     23  H   UNL     1      -4.781  -1.874  -1.126  1.00  0.00     0.210 HD
ENDBRANCH  21  22
ENDBRANCH   1  21
TORSDOF 7
