REMARK SMILES CC1(C)CNc2cc(NC(=O)c3cccnc3NCc3ccncc3)ccc21
REMARK SMILES IDX 12 1 17 2 16 3 15 4 14 5 13 6 10 7 9 8 11 10 8 11 1 12 2 13
REMARK SMILES IDX 3 14 4 15 28 16 5 17 6 18 27 19 7 21 26 22 18 23 19 25 20 26
REMARK SMILES IDX 21 27 25 28 22 29 24 30 23 31
REMARK H PARENT 9 9 5 20 18 24
REMARK Flexibility Score: inf
ROOT
ATOM      1  C   UNL     1       2.084  -1.460   0.835  1.00  0.00     0.082 A 
ATOM      2  C   UNL     1       3.216  -0.755   1.274  1.00  0.00     0.139 A 
ATOM      3  N   UNL     1       4.331  -1.418   1.669  1.00  0.00    -0.239 NA
ATOM      4  C   UNL     1       4.349  -2.768   1.582  1.00  0.00     0.113 A 
ATOM      5  C   UNL     1       3.287  -3.525   1.126  1.00  0.00     0.021 A 
ATOM      6  C   UNL     1       2.131  -2.858   0.744  1.00  0.00     0.019 A 
ENDROOT
BRANCH   1   7
ATOM      7  C   UNL     1       0.860  -0.735   0.409  1.00  0.00     0.259 C 
ATOM      8  N   UNL     1      -0.322  -1.282   0.875  1.00  0.00    -0.322 N 
ATOM      9  H   UNL     1      -0.244  -2.020   1.563  1.00  0.00     0.170 HD
ATOM     10  O   UNL     1       0.990   0.271  -0.280  1.00  0.00    -0.269 OA
BRANCH   8  11
ATOM     11  C   UNL     1      -1.635  -0.853   0.584  1.00  0.00     0.043 A 
ATOM     12  C   UNL     1      -6.302  -0.612  -1.290  1.00  0.00     0.018 C 
ATOM     13  C   UNL     1      -5.616   0.382  -0.345  1.00  0.00     0.009 C 
ATOM     14  C   UNL     1      -6.551   0.765   0.803  1.00  0.00     0.018 C 
ATOM     15  C   UNL     1      -5.123   1.643  -1.114  1.00  0.00     0.124 C 
ATOM     16  C   UNL     1      -4.294  -0.160   0.125  1.00  0.00    -0.017 A 
ATOM     17  N   UNL     1      -3.733   1.398  -1.537  1.00  0.00    -0.384 N 
ATOM     18  C   UNL     1      -3.264   0.480  -0.565  1.00  0.00     0.040 A 
ATOM     19  C   UNL     1      -4.019  -1.143   1.060  1.00  0.00     0.008 A 
ATOM     20  H   UNL     1      -3.140   2.224  -1.575  1.00  0.00     0.160 HD
ATOM     21  C   UNL     1      -1.938   0.127  -0.366  1.00  0.00     0.052 A 
ATOM     22  C   UNL     1      -2.682  -1.483   1.289  1.00  0.00     0.026 A 
ENDBRANCH   8  11
ENDBRANCH   1   7
BRANCH   2  23
ATOM     23  N   UNL     1       3.164   0.641   1.428  1.00  0.00    -0.365 N 
ATOM     24  H   UNL     1       2.615   1.030   0.655  1.00  0.00     0.162 HD
BRANCH  23  25
ATOM     25  C   UNL     1       4.431   1.337   1.594  1.00  0.00     0.150 C 
BRANCH  25  26
ATOM     26  C   UNL     1       5.108   1.574   0.266  1.00  0.00    -0.026 A 
ATOM     27  C   UNL     1       6.175   0.771  -0.145  1.00  0.00     0.025 A 
ATOM     28  C   UNL     1       4.665   2.582  -0.597  1.00  0.00     0.025 A 
ATOM     29  C   UNL     1       6.757   1.017  -1.379  1.00  0.00     0.111 A 
ATOM     30  C   UNL     1       5.313   2.749  -1.812  1.00  0.00     0.111 A 
ATOM     31  N   UNL     1       6.355   1.993  -2.219  1.00  0.00    -0.265 NA
ENDBRANCH  25  26
ENDBRANCH  23  25
ENDBRANCH   2  23
TORSDOF 5
