REMARK SMILES CN1CC[C@]23CCCC[C@H]2[C@H]1Cc1ccc(O)cc13
REMARK SMILES IDX 1 1 2 2 3 3 4 4 5 5 6 6 7 7 8 8 9 9 10 10 11 11 12 12 13 13
REMARK SMILES IDX 14 14 15 15 16 16 18 17 19 18 17 19
REMARK H PARENT 17 20
REMARK Flexibility Score: inf
ROOT
ATOM      1  C   UNL     1      -0.506   3.677  -1.295  1.00  0.00     0.105 C 
ATOM      2  N   UNL     1      -0.209   2.259  -1.115  1.00  0.00    -0.303 NA
ATOM      3  C   UNL     1      -0.628   1.471  -2.273  1.00  0.00     0.085 C 
ATOM      4  C   UNL     1      -0.293  -0.025  -2.134  1.00  0.00     0.027 C 
ATOM      5  C   UNL     1      -0.503  -0.580  -0.692  1.00  0.00     0.001 C 
ATOM      6  C   UNL     1      -1.232  -1.944  -0.740  1.00  0.00     0.012 C 
ATOM      7  C   UNL     1      -1.541  -2.536   0.640  1.00  0.00     0.001 C 
ATOM      8  C   UNL     1      -1.543  -1.524   1.783  1.00  0.00     0.000 C 
ATOM      9  C   UNL     1      -2.045  -0.146   1.371  1.00  0.00     0.006 C 
ATOM     10  C   UNL     1      -1.446   0.398   0.055  1.00  0.00     0.017 C 
ATOM     11  C   UNL     1      -0.709   1.747   0.188  1.00  0.00     0.064 C 
ATOM     12  C   UNL     1       0.502   1.588   1.128  1.00  0.00     0.055 C 
ATOM     13  C   UNL     1       1.351   0.375   0.815  1.00  0.00    -0.042 A 
ATOM     14  C   UNL     1       2.620   0.280   1.413  1.00  0.00     0.008 A 
ATOM     15  C   UNL     1       3.446  -0.815   1.166  1.00  0.00     0.046 A 
ATOM     16  C   UNL     1       3.002  -1.817   0.317  1.00  0.00     0.115 A 
ATOM     17  C   UNL     1       1.746  -1.747  -0.278  1.00  0.00     0.050 A 
ATOM     18  C   UNL     1       0.887  -0.661  -0.025  1.00  0.00    -0.034 A 
ENDROOT
BRANCH  16  19
ATOM     19  O   UNL     1       3.779  -2.903   0.032  1.00  0.00    -0.508 OA
ATOM     20  H   UNL     1       4.625  -2.803   0.498  1.00  0.00     0.293 HD
ENDBRANCH  16  19
TORSDOF 1
