REMARK SMILES Cn1c(=O)c2[nH]cnc2n(C)c1=O
REMARK SMILES IDX 1 1 2 2 3 3 4 4 5 5 6 6 7 7 8 8 9 9 10 10 11 11 12 12 13 13
REMARK H PARENT 6 14
REMARK Flexibility Score: inf
ROOT
ATOM      1  C   UNL     1       2.925  -0.613  -0.083  1.00  0.00     0.159 C 
ATOM      2  N   UNL     1       1.493  -0.387  -0.048  1.00  0.00    -0.261 N 
ATOM      3  C   UNL     1       0.649  -1.498  -0.125  1.00  0.00     0.281 C 
ATOM      4  O   UNL     1       1.022  -2.662  -0.221  1.00  0.00    -0.267 OA
ATOM      5  C   UNL     1      -0.722  -1.143  -0.081  1.00  0.00     0.149 A 
ATOM      6  N   UNL     1      -1.842  -1.919  -0.129  1.00  0.00    -0.339 N 
ATOM      7  C   UNL     1      -2.913  -1.066  -0.049  1.00  0.00     0.199 A 
ATOM      8  N   UNL     1      -2.530   0.192   0.045  1.00  0.00    -0.219 NA
ATOM      9  C   UNL     1      -1.169   0.135   0.025  1.00  0.00     0.167 A 
ATOM     10  N   UNL     1      -0.301   1.197   0.098  1.00  0.00    -0.279 N 
ATOM     11  C   UNL     1      -0.814   2.550   0.210  1.00  0.00     0.157 C 
ATOM     12  C   UNL     1       1.075   0.958   0.062  1.00  0.00     0.332 C 
ATOM     13  O   UNL     1       1.899   1.875   0.125  1.00  0.00    -0.247 OA
ATOM     14  H   UNL     1      -1.870  -2.928  -0.208  1.00  0.00     0.168 HD
ENDROOT
TORSDOF 0
