REMARK SMILES NC(=O)c1ccc2c(c1O)[C@]13CCN(CC4CC4)[C@H](C2)[C@]1(O)CCC(=O)C3
REMARK SMILES IDX 4 1 5 2 6 3 7 4 8 5 9 6 11 7 12 8 13 9 14 10 19 11 20 12
REMARK SMILES IDX 21 13 23 14 24 15 25 16 26 17 27 18 2 19 1 20 3 23 10 24
REMARK SMILES IDX 22 26 15 28 16 29 17 30 18 31
REMARK H PARENT 1 21 1 22 10 25 22 27
REMARK Flexibility Score: inf
ROOT
ATOM      1  C   UNL     1      -3.128  -1.433  -0.902  1.00  0.00     0.081 A 
ATOM      2  C   UNL     1      -2.600  -2.406  -0.051  1.00  0.00     0.018 A 
ATOM      3  C   UNL     1      -1.408  -2.161   0.624  1.00  0.00     0.005 A 
ATOM      4  C   UNL     1      -0.730  -0.938   0.479  1.00  0.00    -0.039 A 
ATOM      5  C   UNL     1      -1.271   0.089  -0.323  1.00  0.00     0.008 A 
ATOM      6  C   UNL     1      -2.443  -0.209  -1.058  1.00  0.00     0.132 A 
ATOM      7  C   UNL     1      -0.520   1.446  -0.462  1.00  0.00     0.038 C 
ATOM      8  C   UNL     1       0.300   1.346  -1.781  1.00  0.00     0.031 C 
ATOM      9  C   UNL     1       1.405   0.273  -1.697  1.00  0.00     0.086 C 
ATOM     10  N   UNL     1       2.194   0.395  -0.470  1.00  0.00    -0.297 NA
ATOM     11  C   UNL     1       1.424   0.433   0.800  1.00  0.00     0.093 C 
ATOM     12  C   UNL     1       0.595  -0.796   1.190  1.00  0.00     0.058 C 
ATOM     13  C   UNL     1       0.509   1.674   0.701  1.00  0.00     0.091 C 
ATOM     14  C   UNL     1      -0.214   2.065   1.996  1.00  0.00     0.046 C 
ATOM     15  C   UNL     1      -0.868   3.442   1.862  1.00  0.00     0.078 C 
ATOM     16  C   UNL     1      -1.194   3.784   0.427  1.00  0.00     0.134 C 
ATOM     17  O   UNL     1      -1.318   4.955   0.063  1.00  0.00    -0.300 OA
ATOM     18  C   UNL     1      -1.522   2.638  -0.504  1.00  0.00     0.090 C 
ENDROOT
BRANCH   1  19
ATOM     19  C   UNL     1      -4.377  -1.689  -1.669  1.00  0.00     0.252 C 
ATOM     20  N   UNL     1      -5.233  -2.660  -1.223  1.00  0.00    -0.365 N 
ATOM     21  H   UNL     1      -6.120  -2.735  -1.709  1.00  0.00     0.159 HD
ATOM     22  H   UNL     1      -5.184  -3.051  -0.294  1.00  0.00     0.159 HD
ATOM     23  O   UNL     1      -4.649  -1.017  -2.660  1.00  0.00    -0.269 OA
ENDBRANCH   1  19
BRANCH   6  24
ATOM     24  O   UNL     1      -2.881   0.724  -1.968  1.00  0.00    -0.507 OA
ATOM     25  H   UNL     1      -3.612   0.335  -2.499  1.00  0.00     0.293 HD
ENDBRANCH   6  24
BRANCH  13  26
ATOM     26  O   UNL     1       1.382   2.791   0.401  1.00  0.00    -0.387 OA
ATOM     27  H   UNL     1       2.098   2.417  -0.157  1.00  0.00     0.211 HD
ENDBRANCH  13  26
BRANCH  10  28
ATOM     28  C   UNL     1       3.448  -0.348  -0.461  1.00  0.00     0.088 C 
BRANCH  28  29
ATOM     29  C   UNL     1       3.342  -1.840  -0.479  1.00  0.00     0.003 C 
ATOM     30  C   UNL     1       4.613  -2.648  -0.359  1.00  0.00     0.005 C 
ATOM     31  C   UNL     1       3.601  -2.670   0.752  1.00  0.00     0.005 C 
ENDBRANCH  28  29
ENDBRANCH  10  28
TORSDOF 5
