REMARK SMILES Nc1nc(N)c2nc(-c3ccccc3)c(N)nc2n1
REMARK SMILES IDX 2 1 3 2 4 3 6 4 7 5 8 6 15 7 17 8 18 9 19 10 1 11 5 14 16 17
REMARK SMILES IDX 9 20 10 21 14 22 11 23 13 24 12 25
REMARK H PARENT 1 12 1 13 5 15 5 16 16 18 16 19
REMARK Flexibility Score: inf
ROOT
ATOM      1  C   UNL     1       4.289   0.503   0.036  1.00  0.00     0.224 A 
ATOM      2  N   UNL     1       3.981  -0.223  -1.033  1.00  0.00    -0.194 NA
ATOM      3  C   UNL     1       2.684  -0.502  -1.218  1.00  0.00     0.157 A 
ATOM      4  C   UNL     1       1.673  -0.066  -0.369  1.00  0.00     0.151 A 
ATOM      5  N   UNL     1       0.359  -0.365  -0.575  1.00  0.00    -0.237 NA
ATOM      6  C   UNL     1      -0.512   0.126   0.337  1.00  0.00     0.113 A 
ATOM      7  C   UNL     1      -0.073   0.918   1.412  1.00  0.00     0.152 A 
ATOM      8  N   UNL     1       1.236   1.195   1.580  1.00  0.00    -0.207 NA
ATOM      9  C   UNL     1       2.124   0.707   0.705  1.00  0.00     0.187 A 
ATOM     10  N   UNL     1       3.407   0.993   0.900  1.00  0.00    -0.191 NA
ENDROOT
BRANCH   1  11
ATOM     11  N   UNL     1       5.618   0.801   0.241  1.00  0.00    -0.368 N 
ATOM     12  H   UNL     1       5.715   1.646   0.787  1.00  0.00     0.159 HD
ATOM     13  H   UNL     1       6.130   0.741  -0.628  1.00  0.00     0.159 HD
ENDBRANCH   1  11
BRANCH   3  14
ATOM     14  N   UNL     1       2.355  -1.296  -2.350  1.00  0.00    -0.382 N 
ATOM     15  H   UNL     1       1.655  -0.788  -2.888  1.00  0.00     0.158 HD
ATOM     16  H   UNL     1       1.868  -2.124  -2.009  1.00  0.00     0.158 HD
ENDBRANCH   3  14
BRANCH   7  17
ATOM     17  N   UNL     1      -0.953   1.488   2.347  1.00  0.00    -0.382 N 
ATOM     18  H   UNL     1      -1.485   0.762   2.817  1.00  0.00     0.158 HD
ATOM     19  H   UNL     1      -1.623   2.083   1.864  1.00  0.00     0.158 HD
ENDBRANCH   7  17
BRANCH   6  20
ATOM     20  C   UNL     1      -1.919  -0.218   0.100  1.00  0.00     0.004 A 
ATOM     21  C   UNL     1      -2.595   0.285  -1.024  1.00  0.00     0.010 A 
ATOM     22  C   UNL     1      -2.620  -1.064   0.975  1.00  0.00     0.010 A 
ATOM     23  C   UNL     1      -3.937  -0.027  -1.252  1.00  0.00     0.001 A 
ATOM     24  C   UNL     1      -3.962  -1.377   0.747  1.00  0.00     0.001 A 
ATOM     25  C   UNL     1      -4.620  -0.855  -0.365  1.00  0.00     0.000 A 
ENDBRANCH   6  20
TORSDOF 4
