REMARK SMILES CNC(=O)COc1cccc(Nc2ncc(F)c(Nc3ccc4c(c3)NC(=O)C(F)(F)O4)n2)c1
REMARK SMILES IDX 7 1 8 2 9 3 10 4 11 5 34 6 6 7 5 8 3 9 1 10 2 11 4 13 12 14
REMARK SMILES IDX 13 16 14 17 33 18 15 19 18 20 16 21 17 22 19 23 20 25 21 26
REMARK SMILES IDX 25 27 22 28 24 29 23 30 26 31 32 32 27 33 29 35 28 36 30 37
REMARK SMILES IDX 31 38
REMARK H PARENT 2 12 12 15 19 24 26 34
REMARK Flexibility Score: inf
ROOT
ATOM      1  C   UNL     1       4.477   0.600   0.096  1.00  0.00     0.122 A 
ATOM      2  C   UNL     1       5.127   1.768  -0.289  1.00  0.00     0.046 A 
ATOM      3  C   UNL     1       4.380   2.858  -0.736  1.00  0.00     0.006 A 
ATOM      4  C   UNL     1       2.985   2.784  -0.799  1.00  0.00     0.026 A 
ATOM      5  C   UNL     1       2.307   1.624  -0.420  1.00  0.00     0.045 A 
ATOM      6  C   UNL     1       3.079   0.538   0.027  1.00  0.00     0.072 A 
ENDROOT
BRANCH   1   7
ATOM      7  O   UNL     1       5.077  -0.542   0.553  1.00  0.00    -0.484 OA
BRANCH   7   8
ATOM      8  C   UNL     1       6.501  -0.527   0.648  1.00  0.00     0.329 C 
BRANCH   8   9
ATOM      9  C   UNL     1       7.031  -1.860   1.177  1.00  0.00     0.257 C 
ATOM     10  C   UNL     1       6.379  -4.011   2.179  1.00  0.00     0.142 C 
ATOM     11  N   UNL     1       6.071  -2.677   1.735  1.00  0.00    -0.356 N 
ATOM     12  H   UNL     1       5.106  -2.422   1.553  1.00  0.00     0.163 HD
ATOM     13  O   UNL     1       8.224  -2.152   1.127  1.00  0.00    -0.271 OA
ENDBRANCH   8   9
ENDBRANCH   7   8
ENDBRANCH   1   7
BRANCH   5  14
ATOM     14  N   UNL     1       0.915   1.483  -0.459  1.00  0.00    -0.324 N 
ATOM     15  H   UNL     1       0.539   0.594  -0.164  1.00  0.00     0.170 HD
BRANCH  14  16
ATOM     16  C   UNL     1      -0.136   2.323  -0.812  1.00  0.00     0.229 A 
ATOM     17  N   UNL     1       0.065   3.584  -1.222  1.00  0.00    -0.218 NA
ATOM     18  N   UNL     1      -1.358   1.769  -0.702  1.00  0.00    -0.192 NA
ATOM     19  C   UNL     1      -1.024   4.311  -1.533  1.00  0.00     0.158 A 
ATOM     20  C   UNL     1      -2.440   2.515  -1.011  1.00  0.00     0.172 A 
ATOM     21  C   UNL     1      -2.299   3.822  -1.444  1.00  0.00     0.184 A 
ATOM     22  F   UNL     1      -3.359   4.584  -1.747  1.00  0.00    -0.201 F 
BRANCH  20  23
ATOM     23  N   UNL     1      -3.751   1.975  -0.938  1.00  0.00    -0.338 N 
ATOM     24  H   UNL     1      -4.400   2.683  -0.607  1.00  0.00     0.168 HD
BRANCH  23  25
ATOM     25  C   UNL     1      -4.169   0.656  -0.673  1.00  0.00     0.042 A 
ATOM     26  C   UNL     1      -3.378  -0.465  -0.956  1.00  0.00     0.030 A 
ATOM     27  C   UNL     1      -5.465   0.440  -0.176  1.00  0.00     0.056 A 
ATOM     28  C   UNL     1      -3.843  -1.762  -0.712  1.00  0.00     0.051 A 
ATOM     29  C   UNL     1      -5.934  -0.856   0.059  1.00  0.00     0.086 A 
ATOM     30  C   UNL     1      -5.124  -1.960  -0.209  1.00  0.00     0.150 A 
ATOM     31  N   UNL     1      -7.209  -1.037   0.598  1.00  0.00    -0.314 N 
ATOM     32  O   UNL     1      -5.486  -3.253   0.046  1.00  0.00    -0.423 OA
ATOM     33  C   UNL     1      -7.737  -2.296   0.770  1.00  0.00     0.339 C 
ATOM     34  H   UNL     1      -7.775  -0.255   0.900  1.00  0.00     0.170 HD
ATOM     35  C   UNL     1      -6.886  -3.451   0.167  1.00  0.00     0.482 C 
ATOM     36  O   UNL     1      -8.833  -2.433   1.315  1.00  0.00    -0.263 OA
ATOM     37  F   UNL     1      -7.336  -3.764  -1.087  1.00  0.00    -0.155 F 
ATOM     38  F   UNL     1      -7.037  -4.597   0.896  1.00  0.00    -0.155 F 
ENDBRANCH  23  25
ENDBRANCH  20  23
ENDBRANCH  14  16
ENDBRANCH   5  14
TORSDOF 7
