REMARK SMILES CCCCCNC(=N)N/N=C/c1c[nH]c2ccc(OC)cc12
REMARK SMILES IDX 6 1 7 2 8 3 9 4 5 8 4 9 3 10 2 11 1 12 10 13 11 14 12 15
REMARK SMILES IDX 13 16 22 17 14 18 15 19 21 20 16 22 18 23 17 24 19 25 20 26
REMARK H PARENT 6 5 8 6 9 7 14 21
REMARK Flexibility Score: inf
ROOT
ATOM      1  N   UNL     1       3.162   1.568   0.175  1.00  0.00    -0.355 N 
ATOM      2  C   UNL     1       1.989   1.782   0.837  1.00  0.00     0.209 C 
ATOM      3  N   UNL     1       1.893   2.319   2.007  1.00  0.00    -0.268 NA
ATOM      4  N   UNL     1       0.893   1.361   0.133  1.00  0.00    -0.248 N 
ATOM      5  H   UNL     1       3.096   1.805  -0.807  1.00  0.00     0.163 HD
ATOM      6  H   UNL     1       0.876   2.315   2.185  1.00  0.00     0.191 HD
ATOM      7  H   UNL     1       1.111   0.632  -0.540  1.00  0.00     0.193 HD
ENDROOT
BRANCH   1   8
ATOM      8  C   UNL     1       4.434   1.989   0.749  1.00  0.00     0.116 C 
BRANCH   8   9
ATOM      9  C   UNL     1       4.925   1.015   1.822  1.00  0.00     0.021 C 
BRANCH   9  10
ATOM     10  C   UNL     1       5.109  -0.433   1.351  1.00  0.00     0.002 C 
BRANCH  10  11
ATOM     11  C   UNL     1       6.151  -0.587   0.243  1.00  0.00    -0.003 C 
ATOM     12  C   UNL     1       6.382  -2.051  -0.101  1.00  0.00     0.004 C 
ENDBRANCH  10  11
ENDBRANCH   9  10
ENDBRANCH   8   9
ENDBRANCH   1   8
BRANCH   4  13
ATOM     13  N   UNL     1      -0.378   1.435   0.642  1.00  0.00    -0.181 NA
ATOM     14  C   UNL     1      -1.292   0.873  -0.080  1.00  0.00     0.143 C 
BRANCH  14  15
ATOM     15  C   UNL     1      -2.668   0.885   0.368  1.00  0.00     0.020 A 
ATOM     16  C   UNL     1      -3.135   1.455   1.538  1.00  0.00     0.093 A 
ATOM     17  C   UNL     1      -3.804   0.320  -0.296  1.00  0.00     0.012 A 
ATOM     18  N   UNL     1      -4.486   1.260   1.607  1.00  0.00    -0.361 N 
ATOM     19  C   UNL     1      -4.922   0.569   0.500  1.00  0.00     0.046 A 
ATOM     20  C   UNL     1      -3.991  -0.385  -1.505  1.00  0.00     0.057 A 
ATOM     21  H   UNL     1      -5.082   1.575   2.360  1.00  0.00     0.166 HD
ATOM     22  C   UNL     1      -6.209   0.151   0.148  1.00  0.00     0.030 A 
ATOM     23  C   UNL     1      -5.272  -0.815  -1.880  1.00  0.00     0.119 A 
ATOM     24  C   UNL     1      -6.364  -0.547  -1.057  1.00  0.00     0.048 A 
BRANCH  23  25
ATOM     25  O   UNL     1      -5.311  -1.486  -3.074  1.00  0.00    -0.497 OA
ATOM     26  C   UNL     1      -6.582  -1.949  -3.511  1.00  0.00     0.278 C 
ENDBRANCH  23  25
ENDBRANCH  14  15
ENDBRANCH   4  13
TORSDOF 7
