REMARK SMILES C[C@@H](CO)NC(=O)[C@@H]1C=C2c3cccc4[nH]cc(c34)C[C@H]2N(C)C1
REMARK SMILES IDX 1 1 2 2 3 3 4 4 5 6 6 7 7 9 8 10 9 11 24 12 10 13 22 14
REMARK SMILES IDX 11 15 21 16 23 17 12 18 19 19 20 20 13 21 15 22 18 23 14 24
REMARK SMILES IDX 16 25 17 26
REMARK H PARENT 4 5 5 8 16 27
REMARK Flexibility Score: inf
ROOT
ATOM      1  C   UNL     1       4.990  -0.640   1.596  1.00  0.00     0.033 C 
ATOM      2  C   UNL     1       4.769   0.097   0.275  1.00  0.00     0.104 C 
ENDROOT
BRANCH   2   3
ATOM      3  C   UNL     1       5.901  -0.189  -0.725  1.00  0.00     0.180 C 
BRANCH   3   4
ATOM      4  O   UNL     1       7.164   0.251  -0.240  1.00  0.00    -0.394 OA
ATOM      5  H   UNL     1       7.109   1.214  -0.110  1.00  0.00     0.210 HD
ENDBRANCH   3   4
ENDBRANCH   2   3
BRANCH   2   6
ATOM      6  N   UNL     1       3.472  -0.263  -0.292  1.00  0.00    -0.351 N 
ATOM      7  C   UNL     1       2.315   0.403   0.075  1.00  0.00     0.228 C 
ATOM      8  H   UNL     1       3.389  -1.167  -0.738  1.00  0.00     0.163 HD
ATOM      9  O   UNL     1       2.329   1.403   0.787  1.00  0.00    -0.274 OA
BRANCH   7  10
ATOM     10  C   UNL     1       1.034  -0.220  -0.502  1.00  0.00     0.115 C 
ATOM     11  C   UNL     1      -0.118   0.753  -0.471  1.00  0.00    -0.007 C 
ATOM     12  C   UNL     1       0.710  -1.506   0.284  1.00  0.00     0.102 C 
ATOM     13  C   UNL     1      -1.346   0.397  -0.042  1.00  0.00    -0.026 C 
ATOM     14  N   UNL     1      -0.624  -2.068  -0.007  1.00  0.00    -0.298 NA
ATOM     15  C   UNL     1      -2.427   1.401   0.116  1.00  0.00    -0.011 A 
ATOM     16  C   UNL     1      -1.678  -1.073   0.369  1.00  0.00     0.091 C 
ATOM     17  C   UNL     1      -0.715  -2.532  -1.391  1.00  0.00     0.106 C 
ATOM     18  C   UNL     1      -2.315   2.796   0.178  1.00  0.00     0.009 A 
ATOM     19  C   UNL     1      -3.713   0.859   0.267  1.00  0.00     0.010 A 
ATOM     20  C   UNL     1      -3.129  -1.560  -0.009  1.00  0.00     0.061 C 
ATOM     21  C   UNL     1      -3.446   3.602   0.376  1.00  0.00     0.003 A 
ATOM     22  C   UNL     1      -4.825   1.660   0.472  1.00  0.00     0.046 A 
ATOM     23  C   UNL     1      -4.130  -0.490   0.247  1.00  0.00    -0.020 A 
ATOM     24  C   UNL     1      -4.727   3.051   0.528  1.00  0.00     0.027 A 
ATOM     25  N   UNL     1      -5.900   0.805   0.589  1.00  0.00    -0.361 N 
ATOM     26  C   UNL     1      -5.490  -0.503   0.451  1.00  0.00     0.087 A 
ATOM     27  H   UNL     1      -6.853   1.101   0.747  1.00  0.00     0.166 HD
ENDBRANCH   7  10
ENDBRANCH   2   6
TORSDOF 4
