REMARK SMILES CN(C)C(=O)c1cc2cnc(Nc3ccc(N4CCNCC4)cn3)nc2n1C1CCCC1
REMARK SMILES IDX 12 1 11 3 6 4 7 5 27 6 8 7 26 8 9 9 25 10 10 11 4 12 1 13
REMARK SMILES IDX 2 14 3 15 5 16 28 17 29 18 32 19 30 20 31 21 13 22 14 23
REMARK SMILES IDX 24 24 15 25 23 26 16 27 17 28 18 29 22 30 19 31 21 32 20 33
REMARK H PARENT 12 2 20 34
REMARK Flexibility Score: inf
ROOT
ATOM      1  N   UNL     1       1.225  -0.563  -0.072  1.00  0.00    -0.309 N 
ATOM      2  H   UNL     1       0.972  -1.538  -0.109  1.00  0.00     0.171 HD
ENDROOT
BRANCH   1   3
ATOM      3  C   UNL     1       0.122   0.244   0.155  1.00  0.00     0.230 A 
ATOM      4  C   UNL     1      -4.245   1.033   0.751  1.00  0.00     0.109 A 
ATOM      5  C   UNL     1      -3.414   2.139   0.889  1.00  0.00     0.045 A 
ATOM      6  N   UNL     1      -3.432  -0.046   0.439  1.00  0.00    -0.318 N 
ATOM      7  C   UNL     1      -2.083   1.727   0.659  1.00  0.00     0.038 A 
ATOM      8  C   UNL     1      -2.118   0.373   0.391  1.00  0.00     0.146 A 
ATOM      9  C   UNL     1      -0.828   2.318   0.652  1.00  0.00     0.127 A 
ATOM     10  N   UNL     1      -1.054  -0.406   0.134  1.00  0.00    -0.194 NA
ATOM     11  N   UNL     1       0.265   1.564   0.392  1.00  0.00    -0.221 NA
BRANCH   4  12
ATOM     12  C   UNL     1      -5.678   0.988   0.972  1.00  0.00     0.270 C 
ATOM     13  C   UNL     1      -7.886   1.917   0.457  1.00  0.00     0.146 C 
ATOM     14  N   UNL     1      -6.483   1.743   0.117  1.00  0.00    -0.343 N 
ATOM     15  C   UNL     1      -5.989   2.534  -1.000  1.00  0.00     0.146 C 
ATOM     16  O   UNL     1      -6.152   0.329   1.893  1.00  0.00    -0.267 OA
ENDBRANCH   4  12
BRANCH   6  17
ATOM     17  C   UNL     1      -3.831  -1.419   0.165  1.00  0.00     0.089 C 
ATOM     18  C   UNL     1      -4.982  -1.602  -0.843  1.00  0.00     0.025 C 
ATOM     19  C   UNL     1      -4.209  -2.230   1.410  1.00  0.00     0.025 C 
ATOM     20  C   UNL     1      -6.034  -2.437  -0.122  1.00  0.00     0.002 C 
ATOM     21  C   UNL     1      -5.246  -3.226   0.911  1.00  0.00     0.002 C 
ENDBRANCH   6  17
ENDBRANCH   1   3
BRANCH   1  22
ATOM     22  C   UNL     1       2.592  -0.371  -0.062  1.00  0.00     0.132 A 
ATOM     23  C   UNL     1       3.214   0.866  -0.025  1.00  0.00     0.049 A 
ATOM     24  N   UNL     1       3.323  -1.501  -0.102  1.00  0.00    -0.237 NA
ATOM     25  C   UNL     1       4.616   0.947  -0.024  1.00  0.00     0.031 A 
ATOM     26  C   UNL     1       4.680  -1.386  -0.083  1.00  0.00     0.139 A 
ATOM     27  C   UNL     1       5.414  -0.197  -0.049  1.00  0.00     0.055 A 
BRANCH  27  28
ATOM     28  N   UNL     1       6.799  -0.159  -0.026  1.00  0.00    -0.368 N 
ATOM     29  C   UNL     1       7.556   1.093   0.139  1.00  0.00     0.132 C 
ATOM     30  C   UNL     1       7.585  -1.348  -0.408  1.00  0.00     0.132 C 
ATOM     31  C   UNL     1       8.931   0.820   0.794  1.00  0.00     0.102 C 
ATOM     32  C   UNL     1       9.020  -0.977  -0.844  1.00  0.00     0.102 C 
ATOM     33  N   UNL     1       9.783  -0.202   0.147  1.00  0.00    -0.313 NA
ATOM     34  H   UNL     1      10.110  -0.836   0.879  1.00  0.00     0.122 HD
ENDBRANCH  27  28
ENDBRANCH   1  22
TORSDOF 5
