REMARK SMILES COCCNCCc1cccc(Nc2ncc3c(n2)-c2ccccc2[C@H](c2ccccc2F)C3)c1
REMARK SMILES IDX 6 1 5 2 4 4 3 5 2 6 1 7 7 8 8 9 35 10 9 11 12 12 10 13 11 14
REMARK SMILES IDX 13 15 14 17 15 18 19 19 16 20 18 21 17 22 20 23 34 24 25 25
REMARK SMILES IDX 21 26 26 27 24 28 22 29 23 30 27 31 28 32 32 33 29 34 31 35
REMARK SMILES IDX 33 36 30 37
REMARK H PARENT 5 3 13 16
REMARK Flexibility Score: inf
ROOT
ATOM      1  C   UNL     1       5.893   0.094  -1.039  1.00  0.00     0.086 C 
ENDROOT
BRANCH   1   2
ATOM      2  N   UNL     1       6.201  -0.793   0.091  1.00  0.00    -0.314 NA
ATOM      3  H   UNL     1       5.315  -1.106   0.497  1.00  0.00     0.122 HD
BRANCH   2   4
ATOM      4  C   UNL     1       6.963  -0.111   1.145  1.00  0.00     0.109 C 
BRANCH   4   5
ATOM      5  C   UNL     1       8.417   0.211   0.774  1.00  0.00     0.175 C 
BRANCH   5   6
ATOM      6  O   UNL     1       9.064   0.795   1.910  1.00  0.00    -0.383 OA
ATOM      7  C   UNL     1      10.428   1.088   1.637  1.00  0.00     0.194 C 
ENDBRANCH   5   6
ENDBRANCH   4   5
ENDBRANCH   2   4
ENDBRANCH   1   2
BRANCH   1   8
ATOM      8  C   UNL     1       4.982  -0.591  -2.073  1.00  0.00     0.051 C 
BRANCH   8   9
ATOM      9  C   UNL     1       3.579  -0.844  -1.575  1.00  0.00    -0.045 A 
ATOM     10  C   UNL     1       2.648   0.207  -1.498  1.00  0.00     0.030 A 
ATOM     11  C   UNL     1       3.190  -2.122  -1.167  1.00  0.00     0.004 A 
ATOM     12  C   UNL     1       1.336   0.005  -1.035  1.00  0.00     0.041 A 
ATOM     13  C   UNL     1       1.900  -2.339  -0.692  1.00  0.00     0.002 A 
ATOM     14  C   UNL     1       0.986  -1.282  -0.624  1.00  0.00     0.026 A 
BRANCH  12  15
ATOM     15  N   UNL     1       0.479   1.108  -0.960  1.00  0.00    -0.324 N 
ATOM     16  H   UNL     1       0.765   1.941  -1.454  1.00  0.00     0.170 HD
BRANCH  15  17
ATOM     17  C   UNL     1      -0.823   1.294  -0.503  1.00  0.00     0.227 A 
ATOM     18  N   UNL     1      -1.346   2.499  -0.785  1.00  0.00    -0.221 NA
ATOM     19  N   UNL     1      -1.480   0.349   0.182  1.00  0.00    -0.212 NA
ATOM     20  C   UNL     1      -2.602   2.736  -0.370  1.00  0.00     0.121 A 
ATOM     21  C   UNL     1      -2.743   0.614   0.583  1.00  0.00     0.079 A 
ATOM     22  C   UNL     1      -3.362   1.819   0.317  1.00  0.00    -0.002 A 
ATOM     23  C   UNL     1      -3.457  -0.446   1.321  1.00  0.00     0.004 A 
ATOM     24  C   UNL     1      -4.736   2.124   0.824  1.00  0.00     0.052 C 
ATOM     25  C   UNL     1      -4.847  -0.333   1.562  1.00  0.00    -0.031 A 
ATOM     26  C   UNL     1      -2.793  -1.589   1.801  1.00  0.00     0.010 A 
ATOM     27  C   UNL     1      -5.624   0.878   1.061  1.00  0.00     0.057 C 
ATOM     28  C   UNL     1      -5.527  -1.353   2.255  1.00  0.00     0.005 A 
ATOM     29  C   UNL     1      -3.476  -2.592   2.493  1.00  0.00     0.001 A 
ATOM     30  C   UNL     1      -4.843  -2.474   2.717  1.00  0.00     0.000 A 
BRANCH  27  31
ATOM     31  C   UNL     1      -6.538   0.564  -0.118  1.00  0.00    -0.004 A 
ATOM     32  C   UNL     1      -7.934   0.631   0.051  1.00  0.00     0.007 A 
ATOM     33  C   UNL     1      -6.052   0.200  -1.379  1.00  0.00     0.127 A 
ATOM     34  C   UNL     1      -8.800   0.346  -1.009  1.00  0.00     0.001 A 
ATOM     35  C   UNL     1      -6.911  -0.085  -2.438  1.00  0.00     0.039 A 
ATOM     36  F   UNL     1      -4.736   0.122  -1.606  1.00  0.00    -0.207 F 
ATOM     37  C   UNL     1      -8.289  -0.012  -2.254  1.00  0.00     0.003 A 
ENDBRANCH  27  31
ENDBRANCH  15  17
ENDBRANCH  12  15
ENDBRANCH   8   9
ENDBRANCH   1   8
TORSDOF 9
