REMARK SMILES O=C1CCc2c(Oc3ccc4c(c3)[C@@H]3[C@H](O4)[C@H]3c3nc4ccc(C(F)(F)F)cc4[nH]3)ccnc2N1
REMARK SMILES IDX 17 1 15 2 16 3 11 4 12 5 13 6 8 7 9 8 10 9 14 10 18 11 23 12
REMARK SMILES IDX 28 13 22 14 29 15 21 16 20 17 30 18 19 19 24 21 25 22 26 23
REMARK SMILES IDX 27 24 7 25 6 26 5 27 31 28 4 29 34 30 32 31 3 32 35 33 33 34
REMARK SMILES IDX 2 35 1 37
REMARK H PARENT 30 20 35 36
REMARK Flexibility Score: inf
ROOT
ATOM      1  C   UNL     1       2.049   0.611  -0.234  1.00  0.00     0.108 C 
ATOM      2  C   UNL     1       1.761   2.084  -0.364  1.00  0.00     0.193 C 
ATOM      3  O   UNL     1       0.719   2.508  -1.319  1.00  0.00    -0.489 OA
ATOM      4  C   UNL     1      -0.489   2.136  -0.749  1.00  0.00     0.123 A 
ATOM      5  C   UNL     1      -0.332   1.415   0.440  1.00  0.00     0.006 A 
ATOM      6  C   UNL     1      -1.454   0.961   1.114  1.00  0.00     0.055 A 
ATOM      7  C   UNL     1      -2.723   1.228   0.581  1.00  0.00     0.128 A 
ATOM      8  C   UNL     1      -2.855   1.962  -0.615  1.00  0.00     0.051 A 
ATOM      9  C   UNL     1      -1.723   2.420  -1.295  1.00  0.00     0.050 A 
ATOM     10  C   UNL     1       1.112   1.271   0.754  1.00  0.00     0.079 C 
ENDROOT
BRANCH   1  11
ATOM     11  C   UNL     1       3.457   0.177   0.250  1.00  0.00     0.114 A 
ATOM     12  C   UNL     1       7.791  -0.964   0.992  1.00  0.00     0.058 A 
ATOM     13  C   UNL     1       6.980  -0.476  -0.054  1.00  0.00     0.041 A 
ATOM     14  C   UNL     1       7.232  -1.219   2.258  1.00  0.00     0.015 A 
ATOM     15  C   UNL     1       5.626  -0.275   0.228  1.00  0.00     0.066 A 
ATOM     16  C   UNL     1       5.869  -1.008   2.511  1.00  0.00     0.031 A 
ATOM     17  C   UNL     1       5.058  -0.528   1.473  1.00  0.00     0.089 A 
ATOM     18  N   UNL     1       4.578   0.172  -0.536  1.00  0.00    -0.342 N 
ATOM     19  N   UNL     1       3.716  -0.242   1.468  1.00  0.00    -0.233 NA
ATOM     20  H   UNL     1       4.620   0.455  -1.504  1.00  0.00     0.168 HD
BRANCH  12  21
ATOM     21  C   UNL     1       9.269  -1.196   0.769  1.00  0.00     0.416 C 
ATOM     22  F   UNL     1       9.685  -2.411   1.223  1.00  0.00    -0.166 F 
ATOM     23  F   UNL     1      10.040  -0.272   1.406  1.00  0.00    -0.166 F 
ATOM     24  F   UNL     1       9.633  -1.145  -0.544  1.00  0.00    -0.166 F 
ENDBRANCH  12  21
ENDBRANCH   1  11
BRANCH   7  25
ATOM     25  O   UNL     1      -3.778   0.740   1.328  1.00  0.00    -0.457 OA
BRANCH  25  26
ATOM     26  C   UNL     1      -5.003   0.628   0.718  1.00  0.00     0.135 A 
ATOM     27  C   UNL     1      -5.309  -0.451  -0.114  1.00  0.00     0.038 A 
ATOM     28  C   UNL     1      -5.964   1.589   1.011  1.00  0.00     0.067 A 
ATOM     29  C   UNL     1      -4.316  -1.503  -0.508  1.00  0.00     0.053 C 
ATOM     30  C   UNL     1      -6.583  -0.470  -0.671  1.00  0.00     0.139 A 
ATOM     31  C   UNL     1      -7.196   1.473   0.397  1.00  0.00     0.117 A 
ATOM     32  C   UNL     1      -5.004  -2.818  -0.839  1.00  0.00     0.105 C 
ATOM     33  N   UNL     1      -6.939  -1.501  -1.532  1.00  0.00    -0.310 N 
ATOM     34  N   UNL     1      -7.519   0.474  -0.452  1.00  0.00    -0.239 NA
ATOM     35  C   UNL     1      -6.196  -2.624  -1.748  1.00  0.00     0.225 C 
ATOM     36  H   UNL     1      -7.821  -1.408  -2.014  1.00  0.00     0.171 HD
ATOM     37  O   UNL     1      -6.538  -3.475  -2.567  1.00  0.00    -0.275 OA
ENDBRANCH  25  26
ENDBRANCH   7  25
TORSDOF 4
