REMARK SMILES CN1CCC(=C2c3ccccc3CCc3cccnc32)CC1
REMARK SMILES IDX 1 1 2 2 3 3 4 4 5 5 6 6 21 7 22 8 7 9 8 10 12 11 9 12 11 13
REMARK SMILES IDX 10 14 13 15 20 17 15 18 19 19 16 20 18 21 17 22 14 23
REMARK H PARENT
REMARK Flexibility Score: 80.00
ROOT
ATOM      1  C   UNL     1       4.721   0.229  -1.422  1.00  0.00     0.105 C 
ATOM      2  N   UNL     1       3.918  -0.327  -0.337  1.00  0.00    -0.306 NA
ATOM      3  C   UNL     1       2.904  -1.258  -0.863  1.00  0.00     0.088 C 
ATOM      4  C   UNL     1       1.716  -1.467   0.091  1.00  0.00     0.047 C 
ATOM      5  C   UNL     1       0.958  -0.164   0.333  1.00  0.00    -0.058 C 
ATOM      6  C   UNL     1      -0.381  -0.104   0.579  1.00  0.00     0.007 C 
ATOM      7  C   UNL     1       1.863   1.057   0.203  1.00  0.00     0.047 C 
ATOM      8  C   UNL     1       3.333   0.724   0.513  1.00  0.00     0.088 C 
ENDROOT
BRANCH   6   9
ATOM      9  C   UNL     1      -1.050   1.216   0.679  1.00  0.00    -0.013 A 
ATOM     10  C   UNL     1      -0.914   2.018   1.818  1.00  0.00     0.009 A 
ATOM     11  C   UNL     1      -1.879   1.633  -0.377  1.00  0.00    -0.040 A 
ATOM     12  C   UNL     1      -1.561   3.252   1.889  1.00  0.00     0.001 A 
ATOM     13  C   UNL     1      -2.523   2.874  -0.297  1.00  0.00     0.004 A 
ATOM     14  C   UNL     1      -2.358   3.682   0.829  1.00  0.00     0.000 A 
BRANCH  11  15
ATOM     15  C   UNL     1      -2.100   0.714  -1.552  1.00  0.00     0.041 CG0
ATOM     16  G   UNL     1      -2.916  -0.526  -1.162  1.00  0.00     0.000 G0
ENDBRANCH  11  15
ENDBRANCH   6   9
BRANCH   6  17
ATOM     17  C   UNL     1      -1.206  -1.342   0.625  1.00  0.00     0.074 A 
ATOM     18  C   UNL     1      -2.347  -1.522  -0.171  1.00  0.00    -0.021 A 
ATOM     19  N   UNL     1      -0.783  -2.272   1.526  1.00  0.00    -0.256 NA
ATOM     20  C   UNL     1      -3.054  -2.727  -0.008  1.00  0.00     0.007 A 
ATOM     21  C   UNL     1      -1.493  -3.411   1.643  1.00  0.00     0.112 A 
ATOM     22  C   UNL     1      -2.625  -3.684   0.903  1.00  0.00     0.020 A 
BRANCH  18  23
ATOM     23  C   UNL     1      -2.916  -0.526  -1.162  1.00  0.00     0.042 CG0
ATOM     24  G   UNL     1      -2.100   0.714  -1.552  1.00  0.00     0.000 G0
ENDBRANCH  18  23
ENDBRANCH   6  17
TORSDOF 0
