REMARK SMILES COc1c2occc2cc2ccc(=O)oc12
REMARK SMILES IDX 3 1 4 2 5 3 6 4 7 5 8 6 9 7 10 8 11 9 12 10 13 11 14 12
REMARK SMILES IDX 15 13 16 14 2 15 1 16
REMARK H PARENT
REMARK Flexibility Score: inf
ROOT
ATOM      1  C   UNL     1      -0.795  -0.541  -0.140  1.00  0.00     0.206 A 
ATOM      2  C   UNL     1      -1.051   0.772   0.281  1.00  0.00     0.179 A 
ATOM      3  O   UNL     1      -2.272   1.344   0.506  1.00  0.00    -0.460 OA
ATOM      4  C   UNL     1      -2.062   2.624   0.900  1.00  0.00     0.196 A 
ATOM      5  C   UNL     1      -0.718   2.902   0.938  1.00  0.00     0.051 A 
ATOM      6  C   UNL     1      -0.051   1.712   0.540  1.00  0.00     0.025 A 
ATOM      7  C   UNL     1       1.298   1.344   0.374  1.00  0.00     0.024 A 
ATOM      8  C   UNL     1       1.600   0.042  -0.046  1.00  0.00     0.022 A 
ATOM      9  C   UNL     1       2.979  -0.384  -0.231  1.00  0.00     0.019 C 
ATOM     10  C   UNL     1       3.241  -1.631  -0.632  1.00  0.00     0.094 C 
ATOM     11  C   UNL     1       2.179  -2.614  -0.902  1.00  0.00     0.336 C 
ATOM     12  O   UNL     1       2.459  -3.749  -1.268  1.00  0.00    -0.246 OA
ATOM     13  O   UNL     1       0.875  -2.184  -0.718  1.00  0.00    -0.419 OA
ATOM     14  C   UNL     1       0.566  -0.865  -0.292  1.00  0.00     0.184 A 
ENDROOT
BRANCH   1  15
ATOM     15  O   UNL     1      -1.708  -1.542  -0.421  1.00  0.00    -0.490 OA
ATOM     16  C   UNL     1      -3.081  -1.211  -0.266  1.00  0.00     0.278 C 
ENDBRANCH   1  15
TORSDOF 1
