REMARK SMILES NC(=O)c1ncn([C@@H]2O[C@H](CO)[C@@H](O)[C@H]2O)n1
REMARK SMILES IDX 8 1 9 2 10 3 13 4 15 5 7 6 4 7 5 8 17 9 6 10 2 11 1 12 3 15
REMARK SMILES IDX 16 16 11 18 12 19 14 21
REMARK H PARENT 1 13 1 14 16 17 12 20 14 22
REMARK Flexibility Score: inf
ROOT
ATOM      1  C   UNL     1      -0.100  -1.042   0.598  1.00  0.00     0.270 C 
ATOM      2  O   UNL     1      -1.224  -1.571  -0.142  1.00  0.00    -0.345 OA
ATOM      3  C   UNL     1      -2.413  -0.861   0.293  1.00  0.00     0.178 C 
ATOM      4  C   UNL     1      -2.002  -0.015   1.500  1.00  0.00     0.179 C 
ATOM      5  C   UNL     1      -0.552   0.296   1.186  1.00  0.00     0.197 C 
ENDROOT
BRANCH   1   6
ATOM      6  N   UNL     1       1.048  -0.943  -0.287  1.00  0.00    -0.221 N 
ATOM      7  C   UNL     1       2.816  -0.238  -1.175  1.00  0.00     0.239 A 
ATOM      8  N   UNL     1       2.628  -1.508  -1.677  1.00  0.00    -0.211 NA
ATOM      9  N   UNL     1       1.862   0.141  -0.291  1.00  0.00    -0.143 NA
ATOM     10  C   UNL     1       1.522  -1.917  -1.105  1.00  0.00     0.223 A 
BRANCH   7  11
ATOM     11  C   UNL     1       3.945   0.634  -1.558  1.00  0.00     0.288 C 
ATOM     12  N   UNL     1       3.907   1.890  -1.007  1.00  0.00    -0.363 N 
ATOM     13  H   UNL     1       3.133   2.157  -0.414  1.00  0.00     0.160 HD
ATOM     14  H   UNL     1       4.632   2.549  -1.248  1.00  0.00     0.160 HD
ATOM     15  O   UNL     1       4.859   0.312  -2.311  1.00  0.00    -0.266 OA
ENDBRANCH   7  11
ENDBRANCH   1   6
BRANCH   5  16
ATOM     16  O   UNL     1       0.159   0.682   2.364  1.00  0.00    -0.386 OA
ATOM     17  H   UNL     1       1.072   0.879   2.075  1.00  0.00     0.211 HD
ENDBRANCH   5  16
BRANCH   3  18
ATOM     18  C   UNL     1      -2.924  -0.029  -0.888  1.00  0.00     0.191 C 
BRANCH  18  19
ATOM     19  O   UNL     1      -4.026   0.775  -0.506  1.00  0.00    -0.394 OA
ATOM     20  H   UNL     1      -4.372   1.198  -1.312  1.00  0.00     0.210 HD
ENDBRANCH  18  19
ENDBRANCH   3  18
BRANCH   4  21
ATOM     21  O   UNL     1      -2.048  -0.811   2.696  1.00  0.00    -0.387 OA
ATOM     22  H   UNL     1      -1.488  -0.334   3.344  1.00  0.00     0.211 HD
ENDBRANCH   4  21
TORSDOF 6
