REMARK SMILES NS(=O)(=O)c1cc2c(cc1Cl)N=C(CSCc1ccccc1)NS2(=O)=O
REMARK SMILES IDX 14 1 13 2 5 3 6 4 10 5 7 6 9 7 11 8 8 9 24 10 12 11 23 12
REMARK SMILES IDX 25 13 26 14 2 16 3 17 4 18 1 19 15 22 16 23 17 24 18 25
REMARK SMILES IDX 22 26 19 27 21 28 20 29
REMARK H PARENT 23 15 1 20 1 21
REMARK Flexibility Score: inf
ROOT
ATOM      1  C   UNL     1      -1.797  -0.444  -2.499  1.00  0.00     0.145 C 
ENDROOT
BRANCH   1   2
ATOM      2  C   UNL     1      -0.365  -0.443  -2.002  1.00  0.00     0.126 C 
ATOM      3  C   UNL     1       3.744   0.382   0.867  1.00  0.00     0.102 A 
ATOM      4  C   UNL     1       3.547  -0.481  -0.218  1.00  0.00     0.048 A 
ATOM      5  C   UNL     1       2.717   1.238   1.268  1.00  0.00     0.063 A 
ATOM      6  C   UNL     1       2.319  -0.469  -0.889  1.00  0.00     0.114 A 
ATOM      7  C   UNL     1       1.496   1.219   0.577  1.00  0.00     0.051 A 
ATOM      8  Cl  UNL     1       2.843   2.353   2.580  1.00  0.00    -0.083 Cl
ATOM      9  C   UNL     1       1.276   0.362  -0.509  1.00  0.00     0.087 A 
ATOM     10  S   UNL     1       2.092  -1.507  -2.272  1.00  0.00     0.265 S 
ATOM     11  N   UNL     1       0.006   0.400  -1.097  1.00  0.00    -0.233 NA
ATOM     12  N   UNL     1       0.471  -1.418  -2.554  1.00  0.00    -0.266 N 
ATOM     13  O   UNL     1       2.360  -2.864  -1.852  1.00  0.00    -0.201 OA
ATOM     14  O   UNL     1       2.776  -0.901  -3.391  1.00  0.00    -0.201 OA
ATOM     15  H   UNL     1       0.057  -2.265  -2.941  1.00  0.00     0.181 HD
BRANCH   3  16
ATOM     16  S   UNL     1       5.298   0.336   1.704  1.00  0.00     0.239 S 
ATOM     17  O   UNL     1       6.191  -0.531   0.969  1.00  0.00    -0.207 OA
ATOM     18  O   UNL     1       5.072   0.172   3.119  1.00  0.00    -0.207 OA
BRANCH  16  19
ATOM     19  N   UNL     1       5.908   1.880   1.464  1.00  0.00    -0.225 NA
ATOM     20  H   UNL     1       6.786   1.831   0.946  1.00  0.00     0.137 HD
ATOM     21  H   UNL     1       5.984   2.368   2.358  1.00  0.00     0.137 HD
ENDBRANCH  16  19
ENDBRANCH   3  16
ENDBRANCH   1   2
BRANCH   1  22
ATOM     22  S   UNL     1      -2.623  -2.009  -2.049  1.00  0.00    -0.149 SA
BRANCH  22  23
ATOM     23  C   UNL     1      -2.703  -1.823  -0.235  1.00  0.00     0.105 C 
BRANCH  23  24
ATOM     24  C   UNL     1      -3.566  -0.673   0.217  1.00  0.00    -0.038 A 
ATOM     25  C   UNL     1      -4.954  -0.695   0.009  1.00  0.00     0.004 A 
ATOM     26  C   UNL     1      -2.998   0.434   0.863  1.00  0.00     0.004 A 
ATOM     27  C   UNL     1      -5.752   0.371   0.429  1.00  0.00     0.000 A 
ATOM     28  C   UNL     1      -3.797   1.499   1.283  1.00  0.00     0.000 A 
ATOM     29  C   UNL     1      -5.173   1.467   1.065  1.00  0.00     0.000 A 
ENDBRANCH  23  24
ENDBRANCH  22  23
ENDBRANCH   1  22
TORSDOF 6
