REMARK SMILES CN1CCC(C(=O)c2cccc(NC(=O)c3c(F)cc(F)cc3F)n2)CC1
REMARK SMILES IDX 8 1 9 2 10 3 11 4 12 5 25 6 6 7 7 8 5 9 1 10 2 11 3 12 27 13
REMARK SMILES IDX 4 14 26 15 13 16 14 17 15 19 16 20 17 21 23 22 18 23 19 24
REMARK SMILES IDX 22 25 24 26 20 27 21 28
REMARK H PARENT 13 18
REMARK Flexibility Score: inf
ROOT
ATOM      1  C   UNL     1      -1.259  -2.720   0.400  1.00  0.00     0.109 A 
ATOM      2  C   UNL     1      -0.943  -4.064   0.547  1.00  0.00     0.032 A 
ATOM      3  C   UNL     1       0.399  -4.422   0.579  1.00  0.00     0.006 A 
ATOM      4  C   UNL     1       1.374  -3.434   0.460  1.00  0.00     0.047 A 
ATOM      5  C   UNL     1       0.974  -2.114   0.313  1.00  0.00     0.133 A 
ATOM      6  N   UNL     1      -0.324  -1.750   0.284  1.00  0.00    -0.228 NA
ENDROOT
BRANCH   1   7
ATOM      7  C   UNL     1      -2.694  -2.302   0.366  1.00  0.00     0.184 C 
ATOM      8  O   UNL     1      -3.571  -3.167   0.445  1.00  0.00    -0.292 OA
BRANCH   7   9
ATOM      9  C   UNL     1      -3.083  -0.830   0.239  1.00  0.00     0.065 C 
ATOM     10  C   UNL     1      -2.985   3.436  -0.128  1.00  0.00     0.105 C 
ATOM     11  N   UNL     1      -2.601   2.029  -0.009  1.00  0.00    -0.306 NA
ATOM     12  C   UNL     1      -3.092   1.471   1.259  1.00  0.00     0.085 C 
ATOM     13  C   UNL     1      -3.108   1.264  -1.158  1.00  0.00     0.085 C 
ATOM     14  C   UNL     1      -2.642   0.020   1.432  1.00  0.00     0.027 C 
ATOM     15  C   UNL     1      -2.660  -0.197  -1.087  1.00  0.00     0.027 C 
ENDBRANCH   7   9
ENDBRANCH   1   7
BRANCH   5  16
ATOM     16  N   UNL     1       1.845  -1.030   0.182  1.00  0.00    -0.306 N 
ATOM     17  C   UNL     1       3.221  -1.036   0.156  1.00  0.00     0.262 C 
ATOM     18  H   UNL     1       1.339  -0.158   0.070  1.00  0.00     0.171 HD
ATOM     19  O   UNL     1       3.922  -2.038   0.236  1.00  0.00    -0.269 OA
BRANCH  17  20
ATOM     20  C   UNL     1       3.878   0.293   0.017  1.00  0.00     0.111 A 
ATOM     21  C   UNL     1       3.214   1.400  -0.524  1.00  0.00     0.141 A 
ATOM     22  C   UNL     1       5.208   0.459   0.418  1.00  0.00     0.141 A 
ATOM     23  F   UNL     1       1.939   1.306  -0.927  1.00  0.00    -0.206 F 
ATOM     24  C   UNL     1       3.848   2.632  -0.663  1.00  0.00     0.079 A 
ATOM     25  C   UNL     1       5.856   1.687   0.284  1.00  0.00     0.079 A 
ATOM     26  F   UNL     1       5.902  -0.545   0.970  1.00  0.00    -0.206 F 
ATOM     27  C   UNL     1       5.168   2.763  -0.258  1.00  0.00     0.129 A 
ATOM     28  F   UNL     1       5.785   3.943  -0.388  1.00  0.00    -0.207 F 
ENDBRANCH  17  20
ENDBRANCH   5  16
TORSDOF 4
