REMARK SMILES CCn1cc(C(=O)O)c(=O)c2cc(F)c(N3CCN(C)CC3)cc21
REMARK SMILES IDX 3 1 4 2 5 3 9 4 10 5 11 6 12 7 13 8 14 9 15 10 23 11 24 12
REMARK SMILES IDX 2 13 1 14 6 15 7 16 8 17 16 19 17 20 22 21 18 22 21 23 19 24
REMARK SMILES IDX 20 25
REMARK H PARENT 8 18
REMARK Flexibility Score: inf
ROOT
ATOM      1  N   UNL     1      -2.974   0.465  -0.266  1.00  0.00    -0.347 N 
ATOM      2  C   UNL     1      -4.138  -0.230  -0.571  1.00  0.00     0.105 C 
ATOM      3  C   UNL     1      -4.233  -1.429  -1.168  1.00  0.00     0.124 C 
ATOM      4  C   UNL     1      -2.955  -2.080  -1.544  1.00  0.00     0.204 C 
ATOM      5  O   UNL     1      -2.911  -3.152  -2.138  1.00  0.00    -0.288 OA
ATOM      6  C   UNL     1      -1.690  -1.390  -1.185  1.00  0.00     0.050 A 
ATOM      7  C   UNL     1      -0.478  -2.018  -1.492  1.00  0.00     0.055 A 
ATOM      8  C   UNL     1       0.722  -1.400  -1.165  1.00  0.00     0.147 A 
ATOM      9  F   UNL     1       1.855  -2.061  -1.447  1.00  0.00    -0.205 F 
ATOM     10  C   UNL     1       0.755  -0.151  -0.529  1.00  0.00     0.075 A 
ATOM     11  C   UNL     1      -0.486   0.455  -0.232  1.00  0.00     0.056 A 
ATOM     12  C   UNL     1      -1.726  -0.134  -0.549  1.00  0.00     0.054 A 
ENDROOT
BRANCH   1  13
ATOM     13  C   UNL     1      -3.036   1.783   0.393  1.00  0.00     0.119 C 
ATOM     14  C   UNL     1      -2.948   1.643   1.906  1.00  0.00     0.027 C 
ENDBRANCH   1  13
BRANCH   3  15
ATOM     15  C   UNL     1      -5.543  -2.059  -1.419  1.00  0.00     0.341 C 
ATOM     16  O   UNL     1      -5.759  -3.192  -1.808  1.00  0.00    -0.246 OA
BRANCH  15  17
ATOM     17  O   UNL     1      -6.588  -1.242  -1.168  1.00  0.00    -0.477 OA
ATOM     18  H   UNL     1      -7.360  -1.805  -1.391  1.00  0.00     0.297 HD
ENDBRANCH  15  17
ENDBRANCH   3  15
BRANCH  10  19
ATOM     19  N   UNL     1       1.927   0.534  -0.153  1.00  0.00    -0.367 N 
ATOM     20  C   UNL     1       2.139   0.502   1.319  1.00  0.00     0.132 C 
ATOM     21  C   UNL     1       3.160   0.312  -0.946  1.00  0.00     0.132 C 
ATOM     22  C   UNL     1       3.579   0.930   1.680  1.00  0.00     0.105 C 
ATOM     23  C   UNL     1       4.201  -0.534  -0.179  1.00  0.00     0.105 C 
ATOM     24  N   UNL     1       4.614   0.027   1.129  1.00  0.00    -0.303 NA
ATOM     25  C   UNL     1       5.901   0.711   1.045  1.00  0.00     0.105 C 
ENDBRANCH  10  19
TORSDOF 4
