REMARK SMILES Nc1nc2c(ncn2COCCO)c(=O)[nH]1
REMARK SMILES IDX 11 1 10 2 9 3 8 4 1 5 2 6 3 9 16 10 4 11 14 12 5 14 15 15
REMARK SMILES IDX 6 16 7 17 12 18 13 19
REMARK H PARENT 1 7 1 8 16 13 13 20
REMARK Flexibility Score: inf
ROOT
ATOM      1  C   UNL     1       2.489  -0.319  -0.181  1.00  0.00     0.190 C 
ENDROOT
BRANCH   1   2
ATOM      2  O   UNL     1       2.136   0.687  -1.133  1.00  0.00    -0.358 OA
BRANCH   2   3
ATOM      3  C   UNL     1       0.835   0.470  -1.684  1.00  0.00     0.288 C 
BRANCH   3   4
ATOM      4  N   UNL     1      -0.170   1.014  -0.797  1.00  0.00    -0.291 N 
ATOM      5  N   UNL     1      -3.095  -2.584   0.088  1.00  0.00    -0.369 N 
ATOM      6  C   UNL     1      -2.646  -1.307   0.181  1.00  0.00     0.202 C 
ATOM      7  H   UNL     1      -4.099  -2.711   0.076  1.00  0.00     0.159 HD
ATOM      8  H   UNL     1      -2.630  -3.099  -0.653  1.00  0.00     0.159 HD
ATOM      9  N   UNL     1      -1.566  -0.949  -0.459  1.00  0.00    -0.195 NA
ATOM     10  N   UNL     1      -3.397  -0.454   0.964  1.00  0.00    -0.291 N 
ATOM     11  C   UNL     1      -1.242   0.353  -0.272  1.00  0.00     0.171 A 
ATOM     12  C   UNL     1      -3.093   0.882   1.190  1.00  0.00     0.280 C 
ATOM     13  H   UNL     1      -4.191  -0.802   1.474  1.00  0.00     0.173 HD
ATOM     14  C   UNL     1      -1.901   1.298   0.484  1.00  0.00     0.173 A 
ATOM     15  O   UNL     1      -3.785   1.590   1.916  1.00  0.00    -0.267 OA
ATOM     16  N   UNL     1      -1.275   2.517   0.426  1.00  0.00    -0.229 NA
ATOM     17  C   UNL     1      -0.232   2.311  -0.353  1.00  0.00     0.204 A 
ENDBRANCH   3   4
ENDBRANCH   2   3
ENDBRANCH   1   2
BRANCH   1  18
ATOM     18  C   UNL     1       3.863  -0.000   0.397  1.00  0.00     0.184 C 
BRANCH  18  19
ATOM     19  O   UNL     1       4.256  -1.012   1.313  1.00  0.00    -0.394 OA
ATOM     20  H   UNL     1       5.113  -0.740   1.684  1.00  0.00     0.210 HD
ENDBRANCH  18  19
ENDBRANCH   1  18
TORSDOF 5
