REMARK SMILES Cc1cccc(C)c1NC(=O)C1CCCCN1C
REMARK SMILES IDX 9 1 10 2 11 3 8 5 1 6 2 7 3 8 4 9 6 10 5 11 7 12 12 13 13 14
REMARK SMILES IDX 17 15 14 16 16 17 18 18 15 19
REMARK H PARENT 9 4
REMARK Flexibility Score: inf
ROOT
ATOM      1  N   UNL     1      -0.823  -0.334   0.084  1.00  0.00    -0.324 N 
ATOM      2  C   UNL     1       0.173   0.510   0.567  1.00  0.00     0.241 C 
ATOM      3  O   UNL     1      -0.001   1.648   0.992  1.00  0.00    -0.273 OA
ATOM      4  H   UNL     1      -0.496  -1.005  -0.597  1.00  0.00     0.170 HD
ENDROOT
BRANCH   1   5
ATOM      5  C   UNL     1      -2.215  -0.065   0.071  1.00  0.00     0.047 A 
ATOM      6  C   UNL     1      -2.271   0.882   2.473  1.00  0.00     0.046 C 
ATOM      7  C   UNL     1      -2.899   0.536   1.149  1.00  0.00    -0.027 A 
ATOM      8  C   UNL     1      -4.276   0.803   1.025  1.00  0.00     0.005 A 
ATOM      9  C   UNL     1      -4.985   0.427  -0.110  1.00  0.00     0.001 A 
ATOM     10  C   UNL     1      -2.949  -0.488  -1.067  1.00  0.00    -0.027 A 
ATOM     11  C   UNL     1      -4.328  -0.230  -1.143  1.00  0.00     0.005 A 
ATOM     12  C   UNL     1      -2.300  -1.180  -2.238  1.00  0.00     0.046 C 
ENDBRANCH   1   5
BRANCH   2  13
ATOM     13  C   UNL     1       1.580  -0.138   0.467  1.00  0.00     0.146 C 
ATOM     14  C   UNL     1       2.327   0.148   1.781  1.00  0.00     0.029 C 
ATOM     15  N   UNL     1       2.346   0.391  -0.695  1.00  0.00    -0.295 NA
ATOM     16  C   UNL     1       3.738  -0.424   1.758  1.00  0.00     0.003 C 
ATOM     17  C   UNL     1       3.695  -0.195  -0.749  1.00  0.00     0.085 C 
ATOM     18  C   UNL     1       1.667   0.191  -1.974  1.00  0.00     0.106 C 
ATOM     19  C   UNL     1       4.486   0.077   0.530  1.00  0.00     0.016 C 
ENDBRANCH   2  13
TORSDOF 2
