REMARK SMILES CN1CCN2c3c(cccc31)[C@@H]1CN(CCCC(=O)c3ccc(F)cc3)CC[C@@H]12
REMARK SMILES IDX 16 1 15 2 14 3 1 4 2 5 3 6 11 7 4 8 6 9 10 10 5 11 7 12 9 13
REMARK SMILES IDX 29 14 8 15 12 16 28 17 13 18 27 19 17 20 18 21 19 22 20 23
REMARK SMILES IDX 21 24 26 25 22 26 25 27 23 28 24 29
REMARK H PARENT
REMARK Flexibility Score: inf
ROOT
ATOM      1  C   UNL     1       2.609   0.576  -0.198  1.00  0.00     0.024 C 
ENDROOT
BRANCH   1   2
ATOM      2  C   UNL     1       1.589   0.785   0.929  1.00  0.00     0.085 C 
BRANCH   2   3
ATOM      3  N   UNL     1       0.693  -0.353   1.175  1.00  0.00    -0.303 NA
ATOM      4  C   UNL     1      -7.255  -0.016  -0.899  1.00  0.00     0.143 C 
ATOM      5  N   UNL     1      -5.996  -0.065  -0.168  1.00  0.00    -0.371 N 
ATOM      6  C   UNL     1      -5.804   0.993   0.854  1.00  0.00     0.137 C 
ATOM      7  C   UNL     1      -4.828  -0.364  -0.899  1.00  0.00     0.060 A 
ATOM      8  C   UNL     1      -4.457   0.854   1.603  1.00  0.00     0.138 C 
ATOM      9  C   UNL     1      -3.572   0.090  -0.458  1.00  0.00     0.064 A 
ATOM     10  C   UNL     1      -4.811  -1.184  -2.036  1.00  0.00     0.028 A 
ATOM     11  N   UNL     1      -3.364   0.955   0.647  1.00  0.00    -0.364 N 
ATOM     12  C   UNL     1      -2.375  -0.265  -1.085  1.00  0.00    -0.016 A 
ATOM     13  C   UNL     1      -3.608  -1.513  -2.694  1.00  0.00     0.003 A 
ATOM     14  C   UNL     1      -1.934   0.843   0.968  1.00  0.00     0.092 C 
ATOM     15  C   UNL     1      -2.378  -1.055  -2.219  1.00  0.00     0.006 A 
ATOM     16  C   UNL     1      -1.222   0.312  -0.317  1.00  0.00     0.058 C 
ATOM     17  C   UNL     1      -1.635  -0.053   2.169  1.00  0.00     0.041 C 
ATOM     18  C   UNL     1      -0.144  -0.725   0.022  1.00  0.00     0.095 C 
ATOM     19  C   UNL     1      -0.120  -0.153   2.391  1.00  0.00     0.086 C 
ENDBRANCH   2   3
ENDBRANCH   1   2
BRANCH   1  20
ATOM     20  C   UNL     1       3.458  -0.678  -0.010  1.00  0.00     0.082 C 
BRANCH  20  21
ATOM     21  C   UNL     1       4.525  -0.756  -1.082  1.00  0.00     0.162 C 
ATOM     22  O   UNL     1       4.258  -1.170  -2.209  1.00  0.00    -0.294 OA
BRANCH  21  23
ATOM     23  C   UNL     1       5.920  -0.311  -0.780  1.00  0.00     0.018 A 
ATOM     24  C   UNL     1       6.239   0.470   0.339  1.00  0.00     0.015 A 
ATOM     25  C   UNL     1       6.939  -0.682  -1.673  1.00  0.00     0.015 A 
ATOM     26  C   UNL     1       7.563   0.861   0.566  1.00  0.00     0.040 A 
ATOM     27  C   UNL     1       8.259  -0.291  -1.443  1.00  0.00     0.040 A 
ATOM     28  C   UNL     1       8.559   0.476  -0.325  1.00  0.00     0.123 A 
ATOM     29  F   UNL     1       9.824   0.854  -0.102  1.00  0.00    -0.207 F 
ENDBRANCH  21  23
ENDBRANCH  20  21
ENDBRANCH   1  20
TORSDOF 5
