REMARK SMILES Cn1c(=O)c2c(ncn2CC(O)CO)n(C)c1=O
REMARK SMILES IDX 11 1 10 2 9 3 1 4 2 5 3 6 17 7 4 8 5 9 15 10 18 11 6 12
REMARK SMILES IDX 16 13 7 14 8 15 12 16 13 18 14 19
REMARK H PARENT 12 17 14 20
REMARK Flexibility Score: inf
ROOT
ATOM      1  C   UNL     1      -2.428  -1.784  -0.015  1.00  0.00     0.159 C 
ENDROOT
BRANCH   1   2
ATOM      2  C   UNL     1      -1.524  -1.398   1.169  1.00  0.00     0.158 C 
BRANCH   2   3
ATOM      3  N   UNL     1      -0.787  -0.163   0.982  1.00  0.00    -0.322 N 
ATOM      4  C   UNL     1       3.574  -1.150  -1.163  1.00  0.00     0.159 C 
ATOM      5  N   UNL     1       2.538  -0.298  -0.616  1.00  0.00    -0.261 N 
ATOM      6  C   UNL     1       1.425  -0.926  -0.043  1.00  0.00     0.282 C 
ATOM      7  C   UNL     1       2.805   1.085  -0.583  1.00  0.00     0.332 C 
ATOM      8  O   UNL     1       1.315  -2.144   0.067  1.00  0.00    -0.267 OA
ATOM      9  C   UNL     1       0.461   0.000   0.447  1.00  0.00     0.152 A 
ATOM     10  N   UNL     1       1.820   1.911  -0.041  1.00  0.00    -0.279 N 
ATOM     11  O   UNL     1       3.871   1.539  -1.009  1.00  0.00    -0.247 OA
ATOM     12  C   UNL     1       0.668   1.348   0.453  1.00  0.00     0.167 A 
ATOM     13  C   UNL     1       2.012   3.348   0.021  1.00  0.00     0.157 C 
ATOM     14  N   UNL     1      -0.372   2.026   1.014  1.00  0.00    -0.218 NA
ATOM     15  C   UNL     1      -1.230   1.084   1.347  1.00  0.00     0.202 A 
ENDBRANCH   2   3
ENDBRANCH   1   2
BRANCH   1  16
ATOM     16  O   UNL     1      -1.649  -2.038  -1.185  1.00  0.00    -0.389 OA
ATOM     17  H   UNL     1      -2.194  -2.558  -1.801  1.00  0.00     0.211 HD
ENDBRANCH   1  16
BRANCH   1  18
ATOM     18  C   UNL     1      -3.510  -0.748  -0.335  1.00  0.00     0.189 C 
BRANCH  18  19
ATOM     19  O   UNL     1      -4.292  -0.462   0.816  1.00  0.00    -0.394 OA
ATOM     20  H   UNL     1      -4.971   0.182   0.544  1.00  0.00     0.210 HD
ENDBRANCH  18  19
ENDBRANCH   1  18
TORSDOF 5
