REMARK SMILES COc1cc(NCc2ccc3nc(N)nc(N)c3c2C)cc(OC)c1OC
REMARK SMILES IDX 7 1 6 2 5 4 3 5 4 6 25 7 22 8 21 9 2 10 1 11 26 12 27 13
REMARK SMILES IDX 23 14 24 15 8 16 9 17 19 18 10 19 18 20 20 21 11 22 16 23
REMARK SMILES IDX 12 24 15 25 13 26 17 27 14 30
REMARK H PARENT 6 3 17 28 17 29 14 31 14 32
REMARK Flexibility Score: inf
ROOT
ATOM      1  C   UNL     1      -0.450   0.048  -0.732  1.00  0.00     0.149 C 
ENDROOT
BRANCH   1   2
ATOM      2  N   UNL     1       0.481   0.570   0.270  1.00  0.00    -0.381 N 
ATOM      3  H   UNL     1       0.144   0.405   1.217  1.00  0.00     0.160 HD
BRANCH   2   4
ATOM      4  C   UNL     1       1.847   0.276   0.154  1.00  0.00     0.042 A 
ATOM      5  C   UNL     1       4.051   0.249   1.242  1.00  0.00     0.166 A 
ATOM      6  C   UNL     1       2.666   0.460   1.287  1.00  0.00     0.076 A 
ATOM      7  C   UNL     1       4.634  -0.127   0.027  1.00  0.00     0.203 A 
ATOM      8  C   UNL     1       3.838  -0.301  -1.108  1.00  0.00     0.166 A 
ATOM      9  C   UNL     1       2.463  -0.061  -1.056  1.00  0.00     0.076 A 
BRANCH   5  10
ATOM     10  O   UNL     1       4.906   0.387   2.306  1.00  0.00    -0.493 OA
ATOM     11  C   UNL     1       4.358   0.856   3.530  1.00  0.00     0.278 C 
ENDBRANCH   5  10
BRANCH   7  12
ATOM     12  O   UNL     1       5.982  -0.389  -0.044  1.00  0.00    -0.490 OA
ATOM     13  C   UNL     1       6.685   0.801  -0.405  1.00  0.00     0.278 C 
ENDBRANCH   7  12
BRANCH   8  14
ATOM     14  O   UNL     1       4.414  -0.639  -2.308  1.00  0.00    -0.493 OA
ATOM     15  C   UNL     1       4.263  -2.043  -2.540  1.00  0.00     0.278 C 
ENDBRANCH   8  14
ENDBRANCH   2   4
ENDBRANCH   1   2
BRANCH   1  16
ATOM     16  C   UNL     1      -1.887   0.408  -0.377  1.00  0.00    -0.025 A 
ATOM     17  C   UNL     1      -2.147   1.690   0.119  1.00  0.00     0.008 A 
ATOM     18  C   UNL     1      -2.985  -0.469  -0.580  1.00  0.00    -0.033 A 
ATOM     19  C   UNL     1      -3.437   2.073   0.472  1.00  0.00     0.029 A 
ATOM     20  C   UNL     1      -4.320  -0.089  -0.129  1.00  0.00     0.046 A 
ATOM     21  C   UNL     1      -2.748  -1.801  -1.254  1.00  0.00     0.045 C 
ATOM     22  C   UNL     1      -4.513   1.211   0.370  1.00  0.00     0.078 A 
ATOM     23  C   UNL     1      -5.518  -0.853  -0.081  1.00  0.00     0.137 A 
ATOM     24  N   UNL     1      -5.687   1.699   0.775  1.00  0.00    -0.213 NA
ATOM     25  N   UNL     1      -6.703  -0.365   0.316  1.00  0.00    -0.196 NA
ATOM     26  C   UNL     1      -6.743   0.900   0.702  1.00  0.00     0.222 A 
BRANCH  23  27
ATOM     27  N   UNL     1      -5.584  -2.198  -0.463  1.00  0.00    -0.383 N 
ATOM     28  H   UNL     1      -5.499  -2.285  -1.468  1.00  0.00     0.158 HD
ATOM     29  H   UNL     1      -4.872  -2.745   0.005  1.00  0.00     0.158 HD
ENDBRANCH  23  27
BRANCH  26  30
ATOM     30  N   UNL     1      -7.958   1.403   1.123  1.00  0.00    -0.368 N 
ATOM     31  H   UNL     1      -8.530   0.636   1.450  1.00  0.00     0.159 HD
ATOM     32  H   UNL     1      -7.796   2.161   1.772  1.00  0.00     0.159 HD
ENDBRANCH  26  30
ENDBRANCH   1  16
TORSDOF 8
