REMARK SMILES O=c1[nH]c2ccccc2n1CCN1CCN(c2cccc(C(F)(F)F)c2)CC1
REMARK SMILES IDX 13 1 14 2 15 3 16 4 27 5 28 6 12 7 11 8 10 9 1 10 2 11 3 12
REMARK SMILES IDX 4 13 9 15 5 16 8 17 6 18 7 19 17 20 18 21 26 22 19 23 21 24
REMARK SMILES IDX 20 25 22 26 23 27 24 28 25 29
REMARK H PARENT 3 14
REMARK Flexibility Score: inf
ROOT
ATOM      1  N   UNL     1       0.471  -0.111   0.389  1.00  0.00    -0.298 NA
ATOM      2  C   UNL     1      -0.424  -1.271   0.160  1.00  0.00     0.106 C 
ATOM      3  C   UNL     1      -1.569  -1.440   1.191  1.00  0.00     0.132 C 
ATOM      4  N   UNL     1      -2.361  -0.193   1.325  1.00  0.00    -0.369 N 
ATOM      5  C   UNL     1      -1.514   0.992   1.567  1.00  0.00     0.132 C 
ATOM      6  C   UNL     1      -0.365   1.104   0.536  1.00  0.00     0.106 C 
ENDROOT
BRANCH   1   7
ATOM      7  C   UNL     1       1.377  -0.290   1.538  1.00  0.00     0.106 C 
BRANCH   7   8
ATOM      8  C   UNL     1       2.465  -1.376   1.374  1.00  0.00     0.143 C 
BRANCH   8   9
ATOM      9  N   UNL     1       3.263  -1.232   0.181  1.00  0.00    -0.291 N 
ATOM     10  O   UNL     1       2.313  -2.896  -1.209  1.00  0.00    -0.248 OA
ATOM     11  C   UNL     1       3.084  -1.973  -1.005  1.00  0.00     0.326 C 
ATOM     12  N   UNL     1       3.999  -1.457  -1.938  1.00  0.00    -0.306 N 
ATOM     13  C   UNL     1       4.708  -0.418  -1.348  1.00  0.00     0.066 A 
ATOM     14  H   UNL     1       4.083  -1.798  -2.880  1.00  0.00     0.171 HD
ATOM     15  C   UNL     1       4.259  -0.269  -0.036  1.00  0.00     0.069 A 
ATOM     16  C   UNL     1       5.692   0.377  -1.890  1.00  0.00     0.028 A 
ATOM     17  C   UNL     1       4.785   0.693   0.798  1.00  0.00     0.028 A 
ATOM     18  C   UNL     1       6.236   1.360  -1.058  1.00  0.00     0.002 A 
ATOM     19  C   UNL     1       5.788   1.516   0.272  1.00  0.00     0.002 A 
ENDBRANCH   8   9
ENDBRANCH   7   8
ENDBRANCH   1   7
BRANCH   4  20
ATOM     20  C   UNL     1      -3.509  -0.104   0.536  1.00  0.00     0.037 A 
ATOM     21  C   UNL     1      -4.477  -1.121   0.593  1.00  0.00     0.026 A 
ATOM     22  C   UNL     1      -3.793   0.984  -0.302  1.00  0.00     0.039 A 
ATOM     23  C   UNL     1      -5.653  -1.075  -0.163  1.00  0.00     0.003 A 
ATOM     24  C   UNL     1      -4.967   1.047  -1.082  1.00  0.00     0.058 A 
ATOM     25  C   UNL     1      -5.897   0.006  -1.000  1.00  0.00     0.013 A 
BRANCH  24  26
ATOM     26  C   UNL     1      -5.230   2.244  -1.959  1.00  0.00     0.416 C 
ATOM     27  F   UNL     1      -6.001   1.955  -3.045  1.00  0.00    -0.166 F 
ATOM     28  F   UNL     1      -5.879   3.240  -1.296  1.00  0.00    -0.166 F 
ATOM     29  F   UNL     1      -4.092   2.808  -2.454  1.00  0.00    -0.166 F 
ENDBRANCH  24  26
ENDBRANCH   4  20
TORSDOF 5
