REMARK SMILES CC(=O)Oc1ccc2c3c1O[C@H]1[C@@H](OC(C)=O)C=C[C@H]4[C@@H](C2)N(C)CC[C@@]341
REMARK SMILES IDX 5 1 6 2 7 3 8 4 9 5 10 6 11 7 12 8 13 9 18 10 19 11 20 12
REMARK SMILES IDX 21 13 22 14 23 15 24 16 25 17 26 18 27 19 4 20 2 21 1 22
REMARK SMILES IDX 3 23 14 24 15 25 16 26 17 27
REMARK H PARENT
REMARK Flexibility Score: inf
ROOT
ATOM      1  C   UNL     1       2.509  -0.674   0.235  1.00  0.00     0.173 A 
ATOM      2  C   UNL     1       2.662  -1.836  -0.529  1.00  0.00     0.051 A 
ATOM      3  C   UNL     1       1.530  -2.485  -1.060  1.00  0.00     0.008 A 
ATOM      4  C   UNL     1       0.246  -2.011  -0.775  1.00  0.00    -0.039 A 
ATOM      5  C   UNL     1       0.140  -0.911   0.064  1.00  0.00     0.012 A 
ATOM      6  C   UNL     1       1.240  -0.212   0.509  1.00  0.00     0.166 A 
ATOM      7  O   UNL     1       0.900   0.941   1.163  1.00  0.00    -0.481 OA
ATOM      8  C   UNL     1      -0.521   1.135   0.824  1.00  0.00     0.229 C 
ATOM      9  C   UNL     1      -0.715   2.174  -0.328  1.00  0.00     0.241 C 
ATOM     10  C   UNL     1      -1.147   1.605  -1.658  1.00  0.00     0.017 C 
ATOM     11  C   UNL     1      -1.829   0.456  -1.782  1.00  0.00    -0.021 C 
ATOM     12  C   UNL     1      -2.173  -0.386  -0.578  1.00  0.00     0.044 C 
ATOM     13  C   UNL     1      -2.317  -1.923  -0.861  1.00  0.00     0.068 C 
ATOM     14  C   UNL     1      -1.001  -2.543  -1.433  1.00  0.00     0.055 C 
ATOM     15  N   UNL     1      -2.664  -2.702   0.359  1.00  0.00    -0.302 NA
ATOM     16  C   UNL     1      -3.817  -3.572   0.144  1.00  0.00     0.105 C 
ATOM     17  C   UNL     1      -2.820  -1.897   1.569  1.00  0.00     0.085 C 
ATOM     18  C   UNL     1      -1.620  -0.971   1.822  1.00  0.00     0.032 C 
ATOM     19  C   UNL     1      -1.127  -0.259   0.538  1.00  0.00     0.049 C 
ENDROOT
BRANCH   1  20
ATOM     20  O   UNL     1       3.631  -0.043   0.755  1.00  0.00    -0.423 OA
BRANCH  20  21
ATOM     21  C   UNL     1       4.008   1.078   0.030  1.00  0.00     0.308 C 
ATOM     22  C   UNL     1       5.150   1.743   0.742  1.00  0.00     0.139 C 
ATOM     23  O   UNL     1       3.537   1.479  -1.026  1.00  0.00    -0.252 OA
ENDBRANCH  20  21
ENDBRANCH   1  20
BRANCH   9  24
ATOM     24  O   UNL     1       0.464   2.960  -0.560  1.00  0.00    -0.454 OA
BRANCH  24  25
ATOM     25  C   UNL     1       0.725   3.901   0.383  1.00  0.00     0.303 C 
ATOM     26  C   UNL     1       2.013   4.600   0.076  1.00  0.00     0.139 C 
ATOM     27  O   UNL     1       0.023   4.145   1.356  1.00  0.00    -0.253 OA
ENDBRANCH  24  25
ENDBRANCH   9  24
TORSDOF 4
