REMARK SMILES Cc1c(N(C)CS(=O)(=O)O)c(=O)n(-c2ccccc2)n1C
REMARK SMILES IDX 4 1 5 2 3 3 1 4 2 5 20 6 11 7 13 8 21 9 12 10 14 11 15 12
REMARK SMILES IDX 19 13 16 14 18 15 17 16 6 17 7 18 8 19 9 20 10 21
REMARK H PARENT 10 22
REMARK Flexibility Score: inf
ROOT
ATOM      1  N   UNL     1      -2.313   0.137  -0.225  1.00  0.00    -0.353 N 
ATOM      2  C   UNL     1      -2.994  -0.214  -1.474  1.00  0.00     0.145 C 
ENDROOT
BRANCH   1   3
ATOM      3  C   UNL     1      -1.007  -0.297   0.008  1.00  0.00     0.127 C 
ATOM      4  C   UNL     1      -1.128  -2.801  -0.375  1.00  0.00     0.069 C 
ATOM      5  C   UNL     1      -0.428  -1.512  -0.069  1.00  0.00     0.061 C 
ATOM      6  N   UNL     1       0.940  -1.515   0.252  1.00  0.00    -0.283 N 
ATOM      7  C   UNL     1       0.123   0.624   0.437  1.00  0.00     0.295 C 
ATOM      8  N   UNL     1       1.277  -0.163   0.524  1.00  0.00    -0.216 N 
ATOM      9  C   UNL     1       1.409  -2.457   1.284  1.00  0.00     0.172 C 
ATOM     10  O   UNL     1      -0.014   1.831   0.589  1.00  0.00    -0.265 OA
BRANCH   8  11
ATOM     11  C   UNL     1       2.608   0.313   0.385  1.00  0.00     0.067 A 
ATOM     12  C   UNL     1       2.953   1.613   0.782  1.00  0.00     0.028 A 
ATOM     13  C   UNL     1       3.617  -0.497  -0.159  1.00  0.00     0.028 A 
ATOM     14  C   UNL     1       4.264   2.083   0.651  1.00  0.00     0.002 A 
ATOM     15  C   UNL     1       4.928  -0.028  -0.292  1.00  0.00     0.002 A 
ATOM     16  C   UNL     1       5.252   1.262   0.115  1.00  0.00     0.000 A 
ENDBRANCH   8  11
ENDBRANCH   1   3
BRANCH   1  17
ATOM     17  C   UNL     1      -2.791   1.418   0.389  1.00  0.00     0.284 C 
BRANCH  17  18
ATOM     18  S   UNL     1      -4.594   1.725   0.596  1.00  0.00     0.283 S 
ATOM     19  O   UNL     1      -4.811   3.003   1.242  1.00  0.00    -0.198 OA
ATOM     20  O   UNL     1      -5.281   0.530   1.033  1.00  0.00    -0.198 OA
BRANCH  18  21
ATOM     21  O   UNL     1      -4.998   1.978  -0.952  1.00  0.00    -0.284 OA
ATOM     22  H   UNL     1      -5.410   2.868  -1.006  1.00  0.00     0.234 HD
ENDBRANCH  18  21
ENDBRANCH  17  18
ENDBRANCH   1  17
TORSDOF 5
