REMARK SMILES NC(=O)N/N=C/c1ccc([N+](=O)[O-])o1
REMARK SMILES IDX 7 1 8 2 9 3 10 4 14 5 6 6 5 7 4 8 1 9 2 10 3 13 11 15 12 16
REMARK SMILES IDX 13 17
REMARK H PARENT 1 11 1 12 4 14
REMARK Flexibility Score: inf
ROOT
ATOM      1  C   UNL     1      -0.330   0.949  -0.296  1.00  0.00     0.154 A 
ATOM      2  C   UNL     1      -1.704   1.051  -0.163  1.00  0.00     0.060 A 
ATOM      3  C   UNL     1      -2.070   2.343  -0.618  1.00  0.00     0.134 A 
ATOM      4  C   UNL     1      -0.892   2.940  -0.998  1.00  0.00     0.433 A 
ATOM      5  O   UNL     1       0.173   2.114  -0.812  1.00  0.00    -0.400 OA
ENDROOT
BRANCH   1   6
ATOM      6  C   UNL     1       0.590  -0.112  -0.001  1.00  0.00     0.180 C 
ATOM      7  N   UNL     1       0.165  -1.229   0.494  1.00  0.00    -0.176 NA
BRANCH   7   8
ATOM      8  N   UNL     1       1.120  -2.176   0.734  1.00  0.00    -0.229 N 
ATOM      9  N   UNL     1       1.817  -4.275   1.272  1.00  0.00    -0.350 N 
ATOM     10  C   UNL     1       0.742  -3.455   1.079  1.00  0.00     0.332 C 
ATOM     11  H   UNL     1       1.526  -5.182   1.620  1.00  0.00     0.161 HD
ATOM     12  H   UNL     1       2.582  -3.877   1.799  1.00  0.00     0.161 HD
ATOM     13  O   UNL     1      -0.396  -3.881   1.217  1.00  0.00    -0.247 OA
ATOM     14  H   UNL     1       2.051  -2.054   0.357  1.00  0.00     0.195 HD
ENDBRANCH   7   8
ENDBRANCH   1   6
BRANCH   4  15
ATOM     15  N   UNL     1      -0.610   4.233  -1.535  1.00  0.00     0.102 N 
ATOM     16  O   UNL     1      -1.581   4.982  -1.703  1.00  0.00    -0.256 OA
ATOM     17  O   UNL     1       0.570   4.507  -1.789  1.00  0.00    -0.256 OA
ENDBRANCH   4  15
TORSDOF 3
