REMARK SMILES CN1CCC(CN2c3ccccc3Sc3ccccc32)C1
REMARK SMILES IDX 6 1 5 2 1 3 2 4 3 5 21 6 4 7 7 8 8 9 20 10 9 11 13 12 15 13
REMARK SMILES IDX 19 14 10 15 12 16 14 17 16 18 18 19 11 20 17 21
REMARK H PARENT
REMARK Flexibility Score: inf
ROOT
ATOM      1  C   UNL     1       0.469  -0.265   1.539  1.00  0.00     0.127 C 
ENDROOT
BRANCH   1   2
ATOM      2  C   UNL     1       1.420  -0.597   0.380  1.00  0.00     0.024 C 
ATOM      3  C   UNL     1       3.186   1.288  -2.216  1.00  0.00     0.105 C 
ATOM      4  N   UNL     1       2.782   0.221  -1.313  1.00  0.00    -0.306 NA
ATOM      5  C   UNL     1       3.698   0.059  -0.187  1.00  0.00     0.084 C 
ATOM      6  C   UNL     1       1.469   0.469  -0.710  1.00  0.00     0.089 C 
ATOM      7  C   UNL     1       2.881  -0.718   0.841  1.00  0.00     0.022 C 
ENDBRANCH   1   2
BRANCH   1   8
ATOM      8  N   UNL     1      -0.959  -0.216   1.130  1.00  0.00    -0.339 N 
ATOM      9  C   UNL     1      -1.506  -1.442   0.659  1.00  0.00     0.055 A 
ATOM     10  C   UNL     1      -1.465   1.065   0.785  1.00  0.00     0.055 A 
ATOM     11  C   UNL     1      -1.260  -2.652   1.341  1.00  0.00     0.027 A 
ATOM     12  C   UNL     1      -2.348  -1.495  -0.469  1.00  0.00     0.036 A 
ATOM     13  C   UNL     1      -2.294   1.262  -0.335  1.00  0.00     0.036 A 
ATOM     14  C   UNL     1      -1.206   2.186   1.601  1.00  0.00     0.027 A 
ATOM     15  C   UNL     1      -1.797  -3.867   0.905  1.00  0.00     0.002 A 
ATOM     16  C   UNL     1      -2.880  -2.721  -0.906  1.00  0.00     0.017 A 
ATOM     17  S   UNL     1      -2.746  -0.057  -1.443  1.00  0.00    -0.086 SA
ATOM     18  C   UNL     1      -2.781   2.543  -0.648  1.00  0.00     0.017 A 
ATOM     19  C   UNL     1      -1.697   3.457   1.289  1.00  0.00     0.002 A 
ATOM     20  C   UNL     1      -2.604  -3.903  -0.224  1.00  0.00     0.001 A 
ATOM     21  C   UNL     1      -2.479   3.638   0.158  1.00  0.00     0.001 A 
ENDBRANCH   1   8
TORSDOF 2
