REMARK SMILES CCOC(=O)Nc1ccc(NCc2ccc(F)cc2)nc1N
REMARK SMILES IDX 7 1 8 2 9 3 10 4 20 5 21 6 6 7 4 8 5 9 3 11 2 12 1 13 22 14
REMARK SMILES IDX 11 17 12 19 13 20 14 21 19 22 15 23 18 24 16 25 17 26
REMARK H PARENT 6 10 22 15 22 16 11 18
REMARK Flexibility Score: inf
ROOT
ATOM      1  C   UNL     1       1.939   0.091   0.283  1.00  0.00     0.086 A 
ATOM      2  C   UNL     1       1.457   0.818  -0.796  1.00  0.00     0.034 A 
ATOM      3  C   UNL     1       0.079   0.939  -0.970  1.00  0.00     0.049 A 
ATOM      4  C   UNL     1      -0.792   0.322  -0.074  1.00  0.00     0.128 A 
ATOM      5  N   UNL     1      -0.337  -0.363   0.995  1.00  0.00    -0.212 NA
ATOM      6  C   UNL     1       0.995  -0.463   1.162  1.00  0.00     0.149 A 
ENDROOT
BRANCH   1   7
ATOM      7  N   UNL     1       3.302  -0.142   0.540  1.00  0.00    -0.288 N 
ATOM      8  C   UNL     1       4.387   0.296  -0.157  1.00  0.00     0.411 C 
ATOM      9  O   UNL     1       4.399   1.028  -1.135  1.00  0.00    -0.224 OA
ATOM     10  H   UNL     1       3.508  -0.772   1.305  1.00  0.00     0.173 HD
BRANCH   8  11
ATOM     11  O   UNL     1       5.501  -0.222   0.426  1.00  0.00    -0.450 OA
BRANCH  11  12
ATOM     12  C   UNL     1       6.752   0.137  -0.179  1.00  0.00     0.231 C 
ATOM     13  C   UNL     1       7.080  -0.817  -1.312  1.00  0.00     0.049 C 
ENDBRANCH  11  12
ENDBRANCH   8  11
ENDBRANCH   1   7
BRANCH   6  14
ATOM     14  N   UNL     1       1.414  -1.155   2.313  1.00  0.00    -0.382 N 
ATOM     15  H   UNL     1       1.941  -0.524   2.910  1.00  0.00     0.158 HD
ATOM     16  H   UNL     1       0.556  -1.441   2.782  1.00  0.00     0.158 HD
ENDBRANCH   6  14
BRANCH   4  17
ATOM     17  N   UNL     1      -2.171   0.488  -0.278  1.00  0.00    -0.366 N 
ATOM     18  H   UNL     1      -2.400   0.275  -1.245  1.00  0.00     0.162 HD
BRANCH  17  19
ATOM     19  C   UNL     1      -3.010  -0.263   0.645  1.00  0.00     0.150 C 
BRANCH  19  20
ATOM     20  C   UNL     1      -4.461  -0.050   0.269  1.00  0.00    -0.029 A 
ATOM     21  C   UNL     1      -5.217  -1.089  -0.296  1.00  0.00     0.008 A 
ATOM     22  C   UNL     1      -5.065   1.204   0.467  1.00  0.00     0.008 A 
ATOM     23  C   UNL     1      -6.552  -0.880  -0.647  1.00  0.00     0.039 A 
ATOM     24  C   UNL     1      -6.399   1.411   0.115  1.00  0.00     0.039 A 
ATOM     25  C   UNL     1      -7.130   0.366  -0.437  1.00  0.00     0.123 A 
ATOM     26  F   UNL     1      -8.411   0.564  -0.776  1.00  0.00    -0.207 F 
ENDBRANCH  19  20
ENDBRANCH  17  19
ENDBRANCH   4  17
TORSDOF 7
