REMARK SMILES CCc1nc(N)nc(N)c1-c1ccc(Cl)cc1
REMARK SMILES IDX 3 1 4 2 5 3 7 4 8 5 10 6 2 7 1 8 11 9 12 10 17 11 13 12
REMARK SMILES IDX 16 13 14 14 15 15 6 16 9 19
REMARK H PARENT 6 17 6 18 9 20 9 21
REMARK Flexibility Score: inf
ROOT
ATOM      1  C   UNL     1      -1.261  -0.066   0.685  1.00  0.00     0.056 A 
ATOM      2  N   UNL     1      -2.330   0.624   1.150  1.00  0.00    -0.218 NA
ATOM      3  C   UNL     1      -2.252   1.954   1.148  1.00  0.00     0.222 A 
ATOM      4  N   UNL     1      -1.189   2.655   0.760  1.00  0.00    -0.196 NA
ATOM      5  C   UNL     1      -0.136   1.957   0.308  1.00  0.00     0.137 A 
ATOM      6  C   UNL     1      -0.102   0.564   0.235  1.00  0.00     0.046 A 
ENDROOT
BRANCH   1   7
ATOM      7  C   UNL     1      -1.450  -1.563   0.644  1.00  0.00     0.054 C 
ATOM      8  C   UNL     1      -2.031  -2.024  -0.684  1.00  0.00     0.011 C 
ENDBRANCH   1   7
BRANCH   6   9
ATOM      9  C   UNL     1       1.069  -0.163  -0.275  1.00  0.00    -0.013 A 
ATOM     10  C   UNL     1       1.976  -0.776   0.607  1.00  0.00     0.010 A 
ATOM     11  C   UNL     1       1.319  -0.244  -1.655  1.00  0.00     0.010 A 
ATOM     12  C   UNL     1       3.093  -1.462   0.121  1.00  0.00     0.021 A 
ATOM     13  C   UNL     1       2.435  -0.929  -2.142  1.00  0.00     0.021 A 
ATOM     14  C   UNL     1       3.316  -1.536  -1.252  1.00  0.00     0.041 A 
ATOM     15  Cl  UNL     1       4.691  -2.380  -1.849  1.00  0.00    -0.084 Cl
ENDBRANCH   6   9
BRANCH   3  16
ATOM     16  N   UNL     1      -3.338   2.652   1.631  1.00  0.00    -0.368 N 
ATOM     17  H   UNL     1      -3.876   2.064   2.252  1.00  0.00     0.159 HD
ATOM     18  H   UNL     1      -3.045   3.555   1.976  1.00  0.00     0.159 HD
ENDBRANCH   3  16
BRANCH   5  19
ATOM     19  N   UNL     1       0.933   2.742  -0.140  1.00  0.00    -0.383 N 
ATOM     20  H   UNL     1       0.712   3.713   0.066  1.00  0.00     0.158 HD
ATOM     21  H   UNL     1       1.817   2.448   0.258  1.00  0.00     0.158 HD
ENDBRANCH   5  19
TORSDOF 4
