REMARK SMILES Nc1ccn([C@H]2CC[C@@H](CO)O2)c(=O)n1
REMARK SMILES IDX 6 1 7 2 8 3 9 4 12 5 5 6 1 7 2 8 3 11 15 12 4 13 13 14 14 15
REMARK SMILES IDX 10 16 11 17
REMARK H PARENT 1 9 1 10 11 18
REMARK Flexibility Score: inf
ROOT
ATOM      1  C   UNL     1      -0.261   1.035   0.342  1.00  0.00     0.224 C 
ATOM      2  C   UNL     1      -0.855   1.229  -1.046  1.00  0.00     0.058 C 
ATOM      3  C   UNL     1      -2.331   1.285  -0.745  1.00  0.00     0.039 C 
ATOM      4  C   UNL     1      -2.476   0.281   0.390  1.00  0.00     0.146 C 
ATOM      5  O   UNL     1      -1.214   0.240   1.079  1.00  0.00    -0.352 OA
ENDROOT
BRANCH   1   6
ATOM      6  N   UNL     1       1.050   0.409   0.319  1.00  0.00    -0.272 N 
ATOM      7  N   UNL     1       4.814  -1.086   0.087  1.00  0.00    -0.383 N 
ATOM      8  C   UNL     1       3.541  -0.593   0.161  1.00  0.00     0.130 C 
ATOM      9  H   UNL     1       4.921  -2.023  -0.281  1.00  0.00     0.158 HD
ATOM     10  H   UNL     1       5.452  -0.419  -0.337  1.00  0.00     0.158 HD
ATOM     11  C   UNL     1       2.421  -1.504   0.462  1.00  0.00     0.065 C 
ATOM     12  N   UNL     1       3.390   0.676  -0.052  1.00  0.00    -0.176 NA
ATOM     13  C   UNL     1       1.216  -0.941   0.525  1.00  0.00     0.097 C 
ATOM     14  C   UNL     1       2.135   1.235   0.004  1.00  0.00     0.351 C 
ATOM     15  O   UNL     1       1.971   2.431  -0.231  1.00  0.00    -0.246 OA
ENDBRANCH   1   6
BRANCH   4  16
ATOM     16  C   UNL     1      -2.826  -1.132  -0.092  1.00  0.00     0.188 C 
BRANCH  16  17
ATOM     17  O   UNL     1      -4.107  -1.173  -0.707  1.00  0.00    -0.394 OA
ATOM     18  H   UNL     1      -4.770  -1.010  -0.014  1.00  0.00     0.210 HD
ENDBRANCH  16  17
ENDBRANCH   4  16
TORSDOF 3
