REMARK SMILES Cc1nc2c(F)cc(-c3nc(Nc4ccc5c(n4)CCN(CCN(C)C)C5)ncc3F)cc2n1C1CC1
REMARK SMILES IDX 21 1 20 2 19 3 17 4 16 5 27 6 15 7 14 8 13 9 18 10 22 11
REMARK SMILES IDX 23 12 24 13 25 14 26 15 12 16 11 18 28 19 10 20 29 21 9 22
REMARK SMILES IDX 30 23 31 24 8 25 7 26 32 27 5 28 33 29 6 30 4 31 34 32 3 33
REMARK SMILES IDX 2 34 1 35 35 36 36 37 37 38
REMARK H PARENT 12 17
REMARK Flexibility Score: inf
ROOT
ATOM      1  N   UNL     1       5.990   0.897   0.016  1.00  0.00    -0.297 NA
ATOM      2  C   UNL     1       5.280   0.459  -1.192  1.00  0.00     0.091 C 
ATOM      3  C   UNL     1       3.815   0.901  -1.127  1.00  0.00     0.072 C 
ATOM      4  C   UNL     1       3.168   0.533   0.182  1.00  0.00     0.049 A 
ATOM      5  C   UNL     1       3.957   0.268   1.300  1.00  0.00    -0.012 A 
ATOM      6  C   UNL     1       5.460   0.214   1.204  1.00  0.00     0.122 C 
ATOM      7  C   UNL     1       3.303  -0.024   2.494  1.00  0.00     0.011 A 
ATOM      8  C   UNL     1       1.911  -0.024   2.532  1.00  0.00     0.047 A 
ATOM      9  C   UNL     1       1.184   0.252   1.373  1.00  0.00     0.132 A 
ATOM     10  N   UNL     1       1.810   0.531   0.212  1.00  0.00    -0.235 NA
ENDROOT
BRANCH   1  11
ATOM     11  C   UNL     1       7.456   0.794  -0.096  1.00  0.00     0.100 C 
BRANCH  11  12
ATOM     12  C   UNL     1       8.048  -0.604  -0.422  1.00  0.00     0.099 C 
BRANCH  12  13
ATOM     13  N   UNL     1       9.518  -0.724  -0.460  1.00  0.00    -0.308 NA
ATOM     14  C   UNL     1      10.141  -0.490   0.841  1.00  0.00     0.105 C 
ATOM     15  C   UNL     1      10.130   0.116  -1.487  1.00  0.00     0.105 C 
ENDBRANCH  12  13
ENDBRANCH  11  12
ENDBRANCH   1  11
BRANCH   9  16
ATOM     16  N   UNL     1      -0.216   0.232   1.464  1.00  0.00    -0.309 N 
ATOM     17  H   UNL     1      -0.563  -0.613   1.897  1.00  0.00     0.171 HD
BRANCH  16  18
ATOM     18  C   UNL     1      -1.133   0.599   0.483  1.00  0.00     0.229 A 
ATOM     19  N   UNL     1      -0.920   1.648  -0.325  1.00  0.00    -0.218 NA
ATOM     20  N   UNL     1      -2.275  -0.115   0.473  1.00  0.00    -0.210 NA
ATOM     21  C   UNL     1      -1.887   1.957  -1.209  1.00  0.00     0.156 A 
ATOM     22  C   UNL     1      -3.244   0.228  -0.417  1.00  0.00     0.112 A 
ATOM     23  C   UNL     1      -3.072   1.278  -1.298  1.00  0.00     0.167 A 
ATOM     24  F   UNL     1      -3.994   1.635  -2.203  1.00  0.00    -0.203 F 
BRANCH  22  25
ATOM     25  C   UNL     1      -4.475  -0.590  -0.352  1.00  0.00     0.008 A 
ATOM     26  C   UNL     1      -4.396  -1.961  -0.043  1.00  0.00     0.052 A 
ATOM     27  C   UNL     1      -5.750  -0.023  -0.568  1.00  0.00     0.039 A 
ATOM     28  C   UNL     1      -5.538  -2.766   0.037  1.00  0.00     0.151 A 
ATOM     29  C   UNL     1      -6.885  -0.847  -0.473  1.00  0.00     0.072 A 
ATOM     30  F   UNL     1      -5.397  -4.068   0.324  1.00  0.00    -0.205 F 
ATOM     31  C   UNL     1      -6.805  -2.207  -0.183  1.00  0.00     0.124 A 
ATOM     32  N   UNL     1      -8.230  -0.624  -0.610  1.00  0.00    -0.325 N 
ATOM     33  N   UNL     1      -8.058  -2.782  -0.171  1.00  0.00    -0.230 NA
ATOM     34  C   UNL     1      -8.905  -1.810  -0.454  1.00  0.00     0.107 A 
ATOM     35  C   UNL     1     -10.374  -1.952  -0.588  1.00  0.00     0.088 C 
BRANCH  32  36
ATOM     36  C   UNL     1      -8.840   0.678  -0.969  1.00  0.00     0.089 C 
ATOM     37  C   UNL     1      -8.571   1.939  -0.181  1.00  0.00     0.027 C 
ATOM     38  C   UNL     1      -9.933   1.320  -0.144  1.00  0.00     0.027 C 
ENDBRANCH  32  36
ENDBRANCH  22  25
ENDBRANCH  16  18
ENDBRANCH   9  16
TORSDOF 7
