REMARK SMILES CNC(=O)c1ccc(N2C(=S)N(c3cnc(C#N)c(C(F)(F)F)c3)C(=O)C23CCC3)cc1F
REMARK SMILES IDX 9 1 10 2 11 3 12 4 25 5 26 6 27 7 28 8 29 9 30 10 8 11 5 12
REMARK SMILES IDX 6 13 32 14 7 15 31 16 33 17 3 18 1 19 2 20 4 22 13 23 14 24
REMARK SMILES IDX 24 25 15 26 19 27 16 28 20 29 21 30 22 31 23 32 17 33 18 34
REMARK H PARENT 2 21
REMARK Flexibility Score: inf
ROOT
ATOM      1  N   UNL     1      -0.164  -0.047   0.713  1.00  0.00    -0.303 N 
ATOM      2  C   UNL     1       0.867   0.942   0.597  1.00  0.00     0.188 C 
ATOM      3  S   UNL     1       0.592   2.600   0.617  1.00  0.00    -0.039 S 
ATOM      4  N   UNL     1       2.107   0.274   0.446  1.00  0.00    -0.253 N 
ATOM      5  C   UNL     1       1.957  -1.105   0.369  1.00  0.00     0.259 C 
ATOM      6  O   UNL     1       2.851  -1.931   0.207  1.00  0.00    -0.271 OA
ATOM      7  C   UNL     1       0.430  -1.418   0.583  1.00  0.00     0.127 C 
ATOM      8  C   UNL     1      -0.232  -2.416  -0.406  1.00  0.00     0.039 C 
ATOM      9  C   UNL     1       0.022  -3.523   0.637  1.00  0.00     0.006 C 
ATOM     10  C   UNL     1       0.094  -2.424   1.717  1.00  0.00     0.039 C 
ENDROOT
BRANCH   1  11
ATOM     11  C   UNL     1      -1.524   0.187   0.376  1.00  0.00     0.047 A 
ATOM     12  C   UNL     1      -4.239   0.577  -0.287  1.00  0.00     0.075 A 
ATOM     13  C   UNL     1      -3.225   0.960  -1.176  1.00  0.00     0.019 A 
ATOM     14  C   UNL     1      -3.872   0.002   0.931  1.00  0.00     0.138 A 
ATOM     15  C   UNL     1      -1.878   0.767  -0.848  1.00  0.00     0.027 A 
ATOM     16  C   UNL     1      -2.530  -0.198   1.263  1.00  0.00     0.066 A 
ATOM     17  F   UNL     1      -4.797  -0.373   1.828  1.00  0.00    -0.206 F 
BRANCH  12  18
ATOM     18  C   UNL     1      -5.656   0.801  -0.692  1.00  0.00     0.253 C 
ATOM     19  C   UNL     1      -8.032   0.685  -0.076  1.00  0.00     0.143 C 
ATOM     20  N   UNL     1      -6.641   0.425   0.195  1.00  0.00    -0.355 N 
ATOM     21  H   UNL     1      -6.384   0.104   1.121  1.00  0.00     0.163 HD
ATOM     22  O   UNL     1      -5.902   1.306  -1.783  1.00  0.00    -0.269 OA
ENDBRANCH  12  18
ENDBRANCH   1  11
BRANCH   4  23
ATOM     23  C   UNL     1       3.400   0.880   0.368  1.00  0.00     0.070 A 
ATOM     24  C   UNL     1       3.778   1.965   1.153  1.00  0.00     0.139 A 
ATOM     25  C   UNL     1       4.393   0.371  -0.481  1.00  0.00     0.044 A 
ATOM     26  N   UNL     1       5.005   2.547   1.131  1.00  0.00    -0.243 NA
ATOM     27  C   UNL     1       5.676   0.947  -0.537  1.00  0.00     0.094 A 
ATOM     28  C   UNL     1       5.933   2.033   0.286  1.00  0.00     0.152 A 
BRANCH  27  29
ATOM     29  C   UNL     1       6.737   0.414  -1.451  1.00  0.00     0.419 C 
ATOM     30  F   UNL     1       7.179   1.349  -2.333  1.00  0.00    -0.166 F 
ATOM     31  F   UNL     1       7.828  -0.033  -0.779  1.00  0.00    -0.166 F 
ATOM     32  F   UNL     1       6.312  -0.633  -2.211  1.00  0.00    -0.166 F 
ENDBRANCH  27  29
BRANCH  28  33
ATOM     33  C   UNL     1       7.209   2.700   0.317  1.00  0.00     0.120 C 
ATOM     34  N   UNL     1       8.252   3.211   0.315  1.00  0.00    -0.191 NA
ENDBRANCH  28  33
ENDBRANCH   4  23
TORSDOF 5
