REMARK SMILES CCn1cc(C(=O)O)c(=O)c2ccc(C)nc21
REMARK SMILES IDX 3 1 4 2 5 3 9 4 10 5 11 6 12 7 13 8 14 9 15 10 16 11 17 12
REMARK SMILES IDX 2 13 1 14 6 15 7 16 8 17
REMARK H PARENT 8 18
REMARK Flexibility Score: inf
ROOT
ATOM      1  N   UNL     1       0.759   0.907   0.038  1.00  0.00    -0.332 N 
ATOM      2  C   UNL     1       2.021   0.402  -0.216  1.00  0.00     0.107 C 
ATOM      3  C   UNL     1       2.351  -0.898  -0.271  1.00  0.00     0.124 C 
ATOM      4  C   UNL     1       1.256  -1.880  -0.082  1.00  0.00     0.205 C 
ATOM      5  O   UNL     1       1.421  -3.090  -0.192  1.00  0.00    -0.288 OA
ATOM      6  C   UNL     1      -0.098  -1.354   0.212  1.00  0.00     0.066 A 
ATOM      7  C   UNL     1      -1.160  -2.236   0.428  1.00  0.00     0.018 A 
ATOM      8  C   UNL     1      -2.425  -1.724   0.685  1.00  0.00     0.024 A 
ATOM      9  C   UNL     1      -2.588  -0.345   0.715  1.00  0.00     0.040 A 
ATOM     10  C   UNL     1      -3.939   0.247   0.986  1.00  0.00     0.067 C 
ATOM     11  N   UNL     1      -1.563   0.519   0.505  1.00  0.00    -0.235 NA
ATOM     12  C   UNL     1      -0.324   0.026   0.256  1.00  0.00     0.144 A 
ENDROOT
BRANCH   1  13
ATOM     13  C   UNL     1       0.451   2.341   0.044  1.00  0.00     0.120 C 
ATOM     14  C   UNL     1      -0.013   2.805  -1.329  1.00  0.00     0.027 C 
ENDBRANCH   1  13
BRANCH   3  15
ATOM     15  C   UNL     1       3.759  -1.231  -0.522  1.00  0.00     0.341 C 
ATOM     16  O   UNL     1       4.577  -0.500  -1.058  1.00  0.00    -0.246 OA
BRANCH  15  17
ATOM     17  O   UNL     1       4.123  -2.429  -0.044  1.00  0.00    -0.477 OA
ATOM     18  H   UNL     1       5.065  -2.525  -0.287  1.00  0.00     0.297 HD
ENDBRANCH  15  17
ENDBRANCH   3  15
TORSDOF 3
