REMARK SMILES CCC(=O)N(c1ccccc1)C1(COC)CCN(CCn2nnn(CC)c2=O)CC1
REMARK SMILES IDX 12 1 16 2 17 3 18 4 29 5 30 6 5 7 3 8 4 9 2 10 1 11 6 12
REMARK SMILES IDX 7 13 11 14 8 15 10 16 9 17 13 18 14 19 15 20 19 21 20 22
REMARK SMILES IDX 21 23 22 24 27 25 23 26 24 27 28 28 25 29 26 30
REMARK H PARENT
REMARK Flexibility Score: inf
ROOT
ATOM      1  C   UNL     1      -1.660  -0.235   0.449  1.00  0.00     0.073 C 
ATOM      2  C   UNL     1      -0.714   0.781   1.160  1.00  0.00     0.047 C 
ATOM      3  C   UNL     1       0.702   0.848   0.573  1.00  0.00     0.087 C 
ATOM      4  N   UNL     1       1.188  -0.493   0.255  1.00  0.00    -0.301 NA
ATOM      5  C   UNL     1       0.402  -1.095  -0.837  1.00  0.00     0.087 C 
ATOM      6  C   UNL     1      -1.035  -0.569  -0.937  1.00  0.00     0.047 C 
ENDROOT
BRANCH   1   7
ATOM      7  N   UNL     1      -3.065   0.353   0.363  1.00  0.00    -0.304 N 
BRANCH   7   8
ATOM      8  C   UNL     1      -3.727   0.740   1.537  1.00  0.00     0.227 C 
ATOM      9  O   UNL     1      -3.200   0.701   2.653  1.00  0.00    -0.275 OA
BRANCH   8  10
ATOM     10  C   UNL     1      -5.193   1.140   1.435  1.00  0.00     0.097 C 
ATOM     11  C   UNL     1      -6.084  -0.084   1.325  1.00  0.00     0.014 C 
ENDBRANCH   8  10
ENDBRANCH   7   8
BRANCH   7  12
ATOM     12  C   UNL     1      -3.501   0.852  -0.892  1.00  0.00     0.044 A 
ATOM     13  C   UNL     1      -4.022  -0.026  -1.845  1.00  0.00     0.026 A 
ATOM     14  C   UNL     1      -3.404   2.219  -1.178  1.00  0.00     0.026 A 
ATOM     15  C   UNL     1      -4.448   0.460  -3.081  1.00  0.00     0.002 A 
ATOM     16  C   UNL     1      -3.824   2.700  -2.418  1.00  0.00     0.002 A 
ATOM     17  C   UNL     1      -4.347   1.821  -3.367  1.00  0.00     0.000 A 
ENDBRANCH   7  12
ENDBRANCH   1   7
BRANCH   1  18
ATOM     18  C   UNL     1      -1.728  -1.560   1.286  1.00  0.00     0.188 C 
BRANCH  18  19
ATOM     19  O   UNL     1      -2.460  -2.568   0.567  1.00  0.00    -0.382 OA
ATOM     20  C   UNL     1      -2.636  -3.739   1.353  1.00  0.00     0.195 C 
ENDBRANCH  18  19
ENDBRANCH   1  18
BRANCH   4  21
ATOM     21  C   UNL     1       2.625  -0.522  -0.082  1.00  0.00     0.108 C 
BRANCH  21  22
ATOM     22  C   UNL     1       3.558  -0.257   1.111  1.00  0.00     0.167 C 
BRANCH  22  23
ATOM     23  N   UNL     1       4.943  -0.382   0.733  1.00  0.00    -0.192 N 
ATOM     24  N   UNL     1       5.654  -1.542   0.878  1.00  0.00    -0.044 NA
ATOM     25  C   UNL     1       5.692   0.539   0.032  1.00  0.00     0.363 C 
ATOM     26  N   UNL     1       6.805  -1.385   0.363  1.00  0.00    -0.044 NA
ATOM     27  N   UNL     1       6.873  -0.136  -0.191  1.00  0.00    -0.194 N 
ATOM     28  O   UNL     1       5.378   1.665  -0.316  1.00  0.00    -0.244 OA
BRANCH  27  29
ATOM     29  C   UNL     1       8.062   0.374  -0.819  1.00  0.00     0.148 C 
ATOM     30  C   UNL     1       8.969   1.073   0.177  1.00  0.00     0.030 C 
ENDBRANCH  27  29
ENDBRANCH  22  23
ENDBRANCH  21  22
ENDBRANCH   4  21
TORSDOF 10
