REMARK SMILES CN1[C@@H]2CC[C@H]1C[C@@H](OC(=O)[C@H](CO)c1ccccc1)C2
REMARK SMILES IDX 10 1 11 2 9 3 8 4 1 5 2 6 3 7 6 8 4 9 21 10 5 11 7 12 12 13
REMARK SMILES IDX 13 14 14 15 15 17 16 18 20 19 17 20 19 21 18 22
REMARK H PARENT 14 16
REMARK Flexibility Score: inf
ROOT
ATOM      1  C   UNL     1       1.215  -0.375  -0.850  1.00  0.00     0.316 C 
ATOM      2  O   UNL     1       1.098  -1.549  -1.179  1.00  0.00    -0.251 OA
ENDROOT
BRANCH   1   3
ATOM      3  O   UNL     1       0.273   0.346  -0.172  1.00  0.00    -0.462 OA
BRANCH   3   4
ATOM      4  C   UNL     1      -0.950  -0.344   0.161  1.00  0.00     0.179 C 
ATOM      5  C   UNL     1      -4.804  -1.513   0.998  1.00  0.00     0.105 C 
ATOM      6  N   UNL     1      -3.472  -1.007   0.675  1.00  0.00    -0.300 NA
ATOM      7  C   UNL     1      -3.118   0.204   1.436  1.00  0.00     0.060 C 
ATOM      8  C   UNL     1      -3.359  -0.541  -0.720  1.00  0.00     0.060 C 
ATOM      9  C   UNL     1      -3.847   1.343   0.714  1.00  0.00     0.021 C 
ATOM     10  C   UNL     1      -1.591   0.390   1.350  1.00  0.00     0.064 C 
ATOM     11  C   UNL     1      -4.004   0.850  -0.718  1.00  0.00     0.021 C 
ATOM     12  C   UNL     1      -1.862  -0.451  -1.072  1.00  0.00     0.064 C 
ENDBRANCH   3   4
ENDBRANCH   1   3
BRANCH   1  13
ATOM     13  C   UNL     1       2.448   0.481  -1.098  1.00  0.00     0.155 C 
BRANCH  13  14
ATOM     14  C   UNL     1       3.005   0.189  -2.496  1.00  0.00     0.176 C 
BRANCH  14  15
ATOM     15  O   UNL     1       2.214   0.853  -3.485  1.00  0.00    -0.395 OA
ATOM     16  H   UNL     1       2.568   0.587  -4.352  1.00  0.00     0.210 HD
ENDBRANCH  14  15
ENDBRANCH  13  14
BRANCH  13  17
ATOM     17  C   UNL     1       3.496   0.267  -0.018  1.00  0.00    -0.032 A 
ATOM     18  C   UNL     1       4.063  -0.996   0.214  1.00  0.00     0.005 A 
ATOM     19  C   UNL     1       3.918   1.350   0.769  1.00  0.00     0.005 A 
ATOM     20  C   UNL     1       5.028  -1.170   1.207  1.00  0.00     0.000 A 
ATOM     21  C   UNL     1       4.885   1.173   1.761  1.00  0.00     0.000 A 
ATOM     22  C   UNL     1       5.439  -0.086   1.979  1.00  0.00     0.000 A 
ENDBRANCH  13  17
ENDBRANCH   1  13
TORSDOF 6
