REMARK SMILES CCC(C)(C)c1ccc(CC(C)CN2C[C@@H](C)O[C@@H](C)C2)cc1
REMARK SMILES IDX 10 1 9 2 6 3 7 4 23 5 8 6 22 7 3 8 4 9 5 10 2 11 1 12 11 13
REMARK SMILES IDX 12 14 13 15 14 16 15 17 21 18 16 19 19 20 17 21 18 22 20 23
REMARK H PARENT
REMARK Flexibility Score: inf
ROOT
ATOM      1  C   UNL     1      -0.444   1.289  -1.093  1.00  0.00     0.040 C 
ENDROOT
BRANCH   1   2
ATOM      2  C   UNL     1       0.953   0.849  -0.723  1.00  0.00    -0.048 A 
ATOM      3  C   UNL     1       3.587   0.013  -0.026  1.00  0.00    -0.042 A 
ATOM      4  C   UNL     1       3.033  -0.273  -1.287  1.00  0.00     0.004 A 
ATOM      5  C   UNL     1       2.786   0.733   0.875  1.00  0.00     0.004 A 
ATOM      6  C   UNL     1       1.742   0.140  -1.632  1.00  0.00     0.004 A 
ATOM      7  C   UNL     1       1.493   1.147   0.531  1.00  0.00     0.004 A 
BRANCH   3   8
ATOM      8  C   UNL     1       5.011  -0.460   0.322  1.00  0.00    -0.011 C 
ATOM      9  C   UNL     1       5.034  -2.008   0.279  1.00  0.00     0.016 C 
ATOM     10  C   UNL     1       5.474  -0.057   1.742  1.00  0.00     0.016 C 
BRANCH   8  11
ATOM     11  C   UNL     1       6.052   0.068  -0.714  1.00  0.00     0.008 C 
ATOM     12  C   UNL     1       6.174   1.587  -0.798  1.00  0.00     0.005 C 
ENDBRANCH   8  11
ENDBRANCH   3   8
ENDBRANCH   1   2
BRANCH   1  13
ATOM     13  C   UNL     1      -1.593   0.296  -0.773  1.00  0.00     0.004 C 
ATOM     14  C   UNL     1      -1.410  -1.015  -1.549  1.00  0.00     0.009 C 
BRANCH  13  15
ATOM     15  C   UNL     1      -1.741   0.072   0.750  1.00  0.00     0.088 C 
BRANCH  15  16
ATOM     16  N   UNL     1      -3.052  -0.226   1.323  1.00  0.00    -0.298 NA
ATOM     17  C   UNL     1      -3.762  -1.423   0.871  1.00  0.00     0.116 C 
ATOM     18  C   UNL     1      -3.961   0.915   1.498  1.00  0.00     0.116 C 
ATOM     19  C   UNL     1      -4.806  -1.170  -0.241  1.00  0.00     0.129 C 
ATOM     20  C   UNL     1      -5.002   1.097   0.373  1.00  0.00     0.129 C 
ATOM     21  C   UNL     1      -5.626  -2.425  -0.511  1.00  0.00     0.040 C 
ATOM     22  O   UNL     1      -5.717  -0.125   0.137  1.00  0.00    -0.373 OA
ATOM     23  C   UNL     1      -6.023   2.165   0.745  1.00  0.00     0.040 C 
ENDBRANCH  15  16
ENDBRANCH  13  15
ENDBRANCH   1  13
TORSDOF 6
