REMARK SMILES Cn1cnc2c(F)c(Nc3ccc(Br)cc3F)c(C(=O)NOCCO)cc21
REMARK SMILES IDX 19 1 20 2 21 3 18 5 1 6 2 7 3 8 27 9 4 10 5 11 26 12 6 13
REMARK SMILES IDX 7 14 8 15 9 16 10 18 11 19 16 20 12 21 15 22 17 23 13 24
REMARK SMILES IDX 14 25 22 26 23 27 24 28 25 29
REMARK H PARENT 21 4 9 17 25 30
REMARK Flexibility Score: inf
ROOT
ATOM      1  C   UNL     1       1.294  -0.492  -0.416  1.00  0.00     0.277 C 
ATOM      2  O   UNL     1       1.084  -1.341  -1.277  1.00  0.00    -0.267 OA
ATOM      3  N   UNL     1       2.361  -0.498   0.467  1.00  0.00    -0.231 N 
ATOM      4  H   UNL     1       2.216  -0.077   1.379  1.00  0.00     0.199 HD
ENDROOT
BRANCH   1   5
ATOM      5  C   UNL     1       0.338   0.639  -0.247  1.00  0.00     0.070 A 
ATOM      6  C   UNL     1       1.346   5.019   0.597  1.00  0.00     0.151 C 
ATOM      7  N   UNL     1       0.102   4.312   0.422  1.00  0.00    -0.334 N 
ATOM      8  C   UNL     1      -1.140   4.874   0.469  1.00  0.00     0.200 A 
ATOM      9  C   UNL     1      -0.043   2.969   0.174  1.00  0.00     0.072 A 
ATOM     10  N   UNL     1      -2.079   3.981   0.260  1.00  0.00    -0.234 NA
ATOM     11  C   UNL     1      -1.419   2.787   0.065  1.00  0.00     0.126 A 
ATOM     12  C   UNL     1       0.869   1.921   0.020  1.00  0.00     0.045 A 
ATOM     13  C   UNL     1      -1.922   1.502  -0.218  1.00  0.00     0.175 A 
ATOM     14  F   UNL     1      -3.247   1.353  -0.379  1.00  0.00    -0.202 F 
ATOM     15  C   UNL     1      -1.053   0.403  -0.382  1.00  0.00     0.090 A 
BRANCH  15  16
ATOM     16  N   UNL     1      -1.518  -0.915  -0.607  1.00  0.00    -0.350 N 
ATOM     17  H   UNL     1      -0.856  -1.490  -1.146  1.00  0.00     0.167 HD
BRANCH  16  18
ATOM     18  C   UNL     1      -2.700  -1.602  -0.276  1.00  0.00     0.075 A 
ATOM     19  C   UNL     1      -3.577  -1.193   0.733  1.00  0.00     0.030 A 
ATOM     20  C   UNL     1      -3.045  -2.753  -1.007  1.00  0.00     0.147 A 
ATOM     21  C   UNL     1      -4.752  -1.907   0.999  1.00  0.00     0.018 A 
ATOM     22  C   UNL     1      -4.209  -3.474  -0.755  1.00  0.00     0.057 A 
ATOM     23  F   UNL     1      -2.229  -3.181  -1.984  1.00  0.00    -0.205 F 
ATOM     24  C   UNL     1      -5.062  -3.042   0.253  1.00  0.00     0.021 A 
ATOM     25  Br  UNL     1      -6.648  -4.002   0.617  1.00  0.00    -0.051 Br
ENDBRANCH  16  18
ENDBRANCH  15  16
ENDBRANCH   1   5
BRANCH   3  26
ATOM     26  O   UNL     1       3.030  -1.749   0.518  1.00  0.00    -0.271 OA
BRANCH  26  27
ATOM     27  C   UNL     1       4.259  -1.635  -0.200  1.00  0.00     0.222 C 
BRANCH  27  28
ATOM     28  C   UNL     1       4.910  -3.010  -0.294  1.00  0.00     0.187 C 
BRANCH  28  29
ATOM     29  O   UNL     1       6.202  -2.926  -0.887  1.00  0.00    -0.394 OA
ATOM     30  H   UNL     1       6.794  -2.506  -0.239  1.00  0.00     0.210 HD
ENDBRANCH  28  29
ENDBRANCH  27  28
ENDBRANCH  26  27
ENDBRANCH   3  26
TORSDOF 7
