REMARK SMILES COc1ncnc(NS(=O)(=O)c2ccc(N)cc2)c1OC
REMARK SMILES IDX 9 1 10 2 11 3 8 4 7 6 3 7 4 8 19 9 5 10 6 11 2 12 1 13 20 14
REMARK SMILES IDX 21 15 12 16 13 17 18 18 14 19 17 20 15 21 16 22
REMARK H PARENT 8 5 16 23 16 24
REMARK Flexibility Score: inf
ROOT
ATOM      1  S   UNL     1       0.945   1.308  -1.519  1.00  0.00     0.263 S 
ATOM      2  O   UNL     1       1.576   2.495  -2.060  1.00  0.00    -0.201 OA
ATOM      3  O   UNL     1      -0.013   0.563  -2.310  1.00  0.00    -0.201 OA
ENDROOT
BRANCH   1   4
ATOM      4  N   UNL     1       0.227   1.782  -0.072  1.00  0.00    -0.260 N 
ATOM      5  H   UNL     1      -0.105   2.741  -0.161  1.00  0.00     0.182 HD
BRANCH   4   6
ATOM      6  C   UNL     1      -0.745   0.876   0.426  1.00  0.00     0.190 A 
ATOM      7  C   UNL     1      -2.921   0.124   0.709  1.00  0.00     0.262 A 
ATOM      8  N   UNL     1      -2.468  -0.983   1.336  1.00  0.00    -0.198 NA
ATOM      9  C   UNL     1      -2.090   1.103   0.199  1.00  0.00     0.225 A 
ATOM     10  C   UNL     1      -1.138  -1.092   1.457  1.00  0.00     0.228 A 
ATOM     11  N   UNL     1      -0.234  -0.208   1.025  1.00  0.00    -0.214 NA
BRANCH   7  12
ATOM     12  O   UNL     1      -4.286   0.306   0.600  1.00  0.00    -0.478 OA
ATOM     13  C   UNL     1      -5.055  -0.752   1.162  1.00  0.00     0.280 C 
ENDBRANCH   7  12
BRANCH   9  14
ATOM     14  O   UNL     1      -2.454   2.256  -0.435  1.00  0.00    -0.489 OA
ATOM     15  C   UNL     1      -3.413   2.060  -1.474  1.00  0.00     0.279 C 
ENDBRANCH   9  14
ENDBRANCH   4   6
ENDBRANCH   1   4
BRANCH   1  16
ATOM     16  C   UNL     1       2.245   0.220  -0.998  1.00  0.00     0.088 A 
ATOM     17  C   UNL     1       3.365   0.752  -0.356  1.00  0.00     0.024 A 
ATOM     18  C   UNL     1       2.156  -1.149  -1.251  1.00  0.00     0.024 A 
ATOM     19  C   UNL     1       4.401  -0.101   0.036  1.00  0.00     0.027 A 
ATOM     20  C   UNL     1       3.200  -1.990  -0.854  1.00  0.00     0.027 A 
ATOM     21  C   UNL     1       4.350  -1.469  -0.253  1.00  0.00     0.031 A 
BRANCH  21  22
ATOM     22  N   UNL     1       5.334  -2.330   0.246  1.00  0.00    -0.399 N 
ATOM     23  H   UNL     1       5.402  -3.210  -0.255  1.00  0.00     0.156 HD
ATOM     24  H   UNL     1       6.240  -1.889   0.372  1.00  0.00     0.156 HD
ENDBRANCH  21  22
ENDBRANCH   1  16
TORSDOF 6
