REMARK SMILES CC(=O)OCOC(=O)[C@@H]1N2C(=O)[C@@H](NC(=O)Cc3ccccc3)[C@H]2SC1(C)C
REMARK SMILES IDX 7 1 8 2 6 3 5 4 4 5 2 6 1 7 3 8 9 9 10 10 26 11 11 12 24 13
REMARK SMILES IDX 25 14 27 15 28 16 12 17 13 18 14 19 15 20 16 22 17 23 18 24
REMARK SMILES IDX 19 25 23 26 20 27 22 28 21 29
REMARK H PARENT 14 21
REMARK Flexibility Score: inf
ROOT
ATOM      1  C   UNL     1       2.896  -0.192  -1.401  1.00  0.00     0.333 C 
ATOM      2  O   UNL     1       2.830   0.603  -2.330  1.00  0.00    -0.250 OA
ENDROOT
BRANCH   1   3
ATOM      3  O   UNL     1       4.035  -0.831  -1.009  1.00  0.00    -0.426 OA
BRANCH   3   4
ATOM      4  C   UNL     1       5.179  -0.490  -1.799  1.00  0.00     0.474 C 
BRANCH   4   5
ATOM      5  O   UNL     1       6.315  -1.174  -1.262  1.00  0.00    -0.428 OA
BRANCH   5   6
ATOM      6  C   UNL     1       7.462  -0.922  -1.944  1.00  0.00     0.305 C 
ATOM      7  C   UNL     1       8.597  -1.691  -1.344  1.00  0.00     0.139 C 
ATOM      8  O   UNL     1       7.561  -0.184  -2.912  1.00  0.00    -0.253 OA
ENDBRANCH   5   6
ENDBRANCH   4   5
ENDBRANCH   3   4
ENDBRANCH   1   3
BRANCH   1   9
ATOM      9  C   UNL     1       1.735  -0.593  -0.486  1.00  0.00     0.212 C 
ATOM     10  N   UNL     1       0.500  -0.475  -1.253  1.00  0.00    -0.311 N 
ATOM     11  C   UNL     1       1.596   0.294   0.774  1.00  0.00     0.044 C 
ATOM     12  C   UNL     1      -0.613  -1.195  -0.930  1.00  0.00     0.250 C 
ATOM     13  C   UNL     1      -0.201   0.822  -1.203  1.00  0.00     0.176 C 
ATOM     14  S   UNL     1       0.362   1.613   0.363  1.00  0.00    -0.125 SA
ATOM     15  C   UNL     1       1.034  -0.514   1.957  1.00  0.00     0.026 C 
ATOM     16  C   UNL     1       2.891   0.981   1.229  1.00  0.00     0.026 C 
ATOM     17  O   UNL     1      -0.733  -2.321  -0.503  1.00  0.00    -0.272 OA
ATOM     18  C   UNL     1      -1.535   0.026  -1.161  1.00  0.00     0.205 C 
BRANCH  18  19
ATOM     19  N   UNL     1      -2.490   0.336  -0.066  1.00  0.00    -0.341 N 
ATOM     20  C   UNL     1      -3.227   1.499  -0.080  1.00  0.00     0.225 C 
ATOM     21  H   UNL     1      -2.681  -0.357   0.651  1.00  0.00     0.164 HD
ATOM     22  O   UNL     1      -3.148   2.318  -0.993  1.00  0.00    -0.275 OA
BRANCH  20  23
ATOM     23  C   UNL     1      -4.141   1.681   1.116  1.00  0.00     0.135 C 
BRANCH  23  24
ATOM     24  C   UNL     1      -5.447   0.939   0.960  1.00  0.00    -0.039 A 
ATOM     25  C   UNL     1      -5.724  -0.202   1.727  1.00  0.00     0.004 A 
ATOM     26  C   UNL     1      -6.397   1.381   0.027  1.00  0.00     0.004 A 
ATOM     27  C   UNL     1      -6.929  -0.887   1.558  1.00  0.00     0.000 A 
ATOM     28  C   UNL     1      -7.601   0.695  -0.138  1.00  0.00     0.000 A 
ATOM     29  C   UNL     1      -7.866  -0.440   0.625  1.00  0.00     0.000 A 
ENDBRANCH  23  24
ENDBRANCH  20  23
ENDBRANCH  18  19
ENDBRANCH   1   9
TORSDOF 8
