REMARK SMILES O=C1CN(/N=C/c2ccc(-c3ccc([N+](=O)[O-])cc3)o2)C(=O)N1
REMARK SMILES IDX 7 1 8 2 9 3 10 4 20 5 6 6 5 7 4 8 1 9 2 10 3 11 23 12 21 13
REMARK SMILES IDX 22 15 11 16 12 17 19 18 13 19 18 20 14 21 15 22 16 23 17 24
REMARK H PARENT 23 14
REMARK Flexibility Score: inf
ROOT
ATOM      1  C   UNL     1      -0.814  -0.832   0.188  1.00  0.00     0.147 A 
ATOM      2  C   UNL     1      -0.497  -2.163   0.355  1.00  0.00     0.053 A 
ATOM      3  C   UNL     1       0.916  -2.245   0.347  1.00  0.00     0.051 A 
ATOM      4  C   UNL     1       1.391  -0.959   0.175  1.00  0.00     0.134 A 
ATOM      5  O   UNL     1       0.332  -0.097   0.078  1.00  0.00    -0.455 OA
ENDROOT
BRANCH   1   6
ATOM      6  C   UNL     1      -2.068  -0.139   0.116  1.00  0.00     0.180 C 
ATOM      7  N   UNL     1      -3.182  -0.790   0.214  1.00  0.00    -0.173 NA
BRANCH   7   8
ATOM      8  N   UNL     1      -4.364  -0.108   0.142  1.00  0.00    -0.205 N 
ATOM      9  O   UNL     1      -6.727   2.406  -0.150  1.00  0.00    -0.272 OA
ATOM     10  C   UNL     1      -6.068   1.384  -0.027  1.00  0.00     0.249 C 
ATOM     11  C   UNL     1      -4.554   1.310  -0.038  1.00  0.00     0.250 C 
ATOM     12  N   UNL     1      -6.580   0.139   0.140  1.00  0.00    -0.275 N 
ATOM     13  C   UNL     1      -5.588  -0.786   0.246  1.00  0.00     0.344 C 
ATOM     14  H   UNL     1      -7.559  -0.086   0.182  1.00  0.00     0.174 HD
ATOM     15  O   UNL     1      -5.782  -1.981   0.403  1.00  0.00    -0.246 OA
ENDBRANCH   7   8
ENDBRANCH   1   6
BRANCH   4  16
ATOM     16  C   UNL     1       2.723  -0.363   0.080  1.00  0.00     0.018 A 
ATOM     17  C   UNL     1       3.872  -1.167   0.169  1.00  0.00     0.019 A 
ATOM     18  C   UNL     1       2.891   1.021  -0.100  1.00  0.00     0.019 A 
ATOM     19  C   UNL     1       5.153  -0.610   0.080  1.00  0.00     0.086 A 
ATOM     20  C   UNL     1       4.167   1.591  -0.191  1.00  0.00     0.086 A 
ATOM     21  C   UNL     1       5.295   0.770  -0.100  1.00  0.00     0.269 A 
BRANCH  21  22
ATOM     22  N   UNL     1       6.636   1.360  -0.194  1.00  0.00     0.062 N 
ATOM     23  O   UNL     1       7.609   0.597  -0.108  1.00  0.00    -0.258 OA
ATOM     24  O   UNL     1       6.717   2.586  -0.353  1.00  0.00    -0.258 OA
ENDBRANCH  21  22
ENDBRANCH   4  16
TORSDOF 4
