REMARK SMILES C=C1[C@H](CO)[C@@H](O)C[C@@H]1n1cnc2c(=O)[nH]c(N)nc21
REMARK SMILES IDX 1 1 2 2 3 3 6 4 8 5 9 6 4 7 5 8 10 10 11 11 20 12 12 13
REMARK SMILES IDX 13 14 19 15 14 16 17 17 15 18 16 19 18 20 7 24
REMARK H PARENT 5 9 16 21 18 22 18 23 7 25
REMARK Flexibility Score: inf
ROOT
ATOM      1  C   UNL     1       0.683  -1.141   2.209  1.00  0.00     0.010 C 
ATOM      2  C   UNL     1       1.219  -0.857   1.011  1.00  0.00    -0.047 C 
ATOM      3  C   UNL     1       2.451   0.018   0.806  1.00  0.00     0.071 C 
ATOM      4  C   UNL     1       2.745  -0.124  -0.699  1.00  0.00     0.126 C 
ATOM      5  C   UNL     1       1.405  -0.449  -1.347  1.00  0.00     0.062 C 
ATOM      6  C   UNL     1       0.735  -1.377  -0.329  1.00  0.00     0.119 C 
ENDROOT
BRANCH   3   7
ATOM      7  C   UNL     1       2.270   1.480   1.256  1.00  0.00     0.166 C 
BRANCH   7   8
ATOM      8  O   UNL     1       1.477   2.267   0.374  1.00  0.00    -0.396 OA
ATOM      9  H   UNL     1       2.056   2.606  -0.328  1.00  0.00     0.210 HD
ENDBRANCH   7   8
ENDBRANCH   3   7
BRANCH   6  10
ATOM     10  N   UNL     1      -0.704  -1.480  -0.500  1.00  0.00    -0.308 N 
ATOM     11  C   UNL     1      -1.375  -2.620  -0.878  1.00  0.00     0.202 A 
ATOM     12  C   UNL     1      -1.645  -0.501  -0.359  1.00  0.00     0.170 A 
ATOM     13  N   UNL     1      -2.675  -2.424  -0.985  1.00  0.00    -0.229 NA
ATOM     14  C   UNL     1      -2.845  -1.104  -0.656  1.00  0.00     0.173 A 
ATOM     15  N   UNL     1      -1.426   0.781   0.007  1.00  0.00    -0.195 NA
ATOM     16  C   UNL     1      -4.044  -0.295  -0.574  1.00  0.00     0.280 C 
ATOM     17  C   UNL     1      -2.510   1.499   0.078  1.00  0.00     0.202 C 
ATOM     18  O   UNL     1      -5.188  -0.682  -0.789  1.00  0.00    -0.267 OA
ATOM     19  N   UNL     1      -3.770   1.018  -0.211  1.00  0.00    -0.291 N 
ATOM     20  N   UNL     1      -2.422   2.802   0.446  1.00  0.00    -0.369 N 
ATOM     21  H   UNL     1      -4.574   1.608  -0.084  1.00  0.00     0.173 HD
ATOM     22  H   UNL     1      -2.989   3.449  -0.085  1.00  0.00     0.159 HD
ATOM     23  H   UNL     1      -1.445   3.090   0.481  1.00  0.00     0.159 HD
ENDBRANCH   6  10
BRANCH   4  24
ATOM     24  O   UNL     1       3.644  -1.216  -0.912  1.00  0.00    -0.392 OA
ATOM     25  H   UNL     1       3.852  -1.247  -1.863  1.00  0.00     0.210 HD
ENDBRANCH   4  24
TORSDOF 4
