REMARK SMILES Cc1ccc(N(CC2=NCCN2)c2cccc(O)c2)cc1
REMARK SMILES IDX 6 1 5 2 1 3 2 4 3 5 21 6 4 7 20 8 7 9 8 10 9 11 12 12 10 13
REMARK SMILES IDX 11 14 13 16 14 17 19 18 15 19 17 20 16 21 18 22
REMARK H PARENT 12 15 18 23
REMARK Flexibility Score: inf
ROOT
ATOM      1  N   UNL     1      -0.078   0.517  -0.814  1.00  0.00    -0.334 N 
ENDROOT
BRANCH   1   2
ATOM      2  C   UNL     1       0.916  -0.494  -0.821  1.00  0.00     0.042 A 
ATOM      3  C   UNL     1       4.057  -3.501  -0.853  1.00  0.00     0.044 C 
ATOM      4  C   UNL     1       2.975  -2.465  -0.815  1.00  0.00    -0.051 A 
ATOM      5  C   UNL     1       1.634  -2.831  -0.940  1.00  0.00     0.005 A 
ATOM      6  C   UNL     1       3.291  -1.109  -0.716  1.00  0.00     0.005 A 
ATOM      7  C   UNL     1       0.623  -1.860  -0.940  1.00  0.00     0.026 A 
ATOM      8  C   UNL     1       2.276  -0.145  -0.716  1.00  0.00     0.026 A 
ENDBRANCH   1   2
BRANCH   1   9
ATOM      9  C   UNL     1      -1.333   0.239  -1.557  1.00  0.00     0.197 C 
BRANCH   9  10
ATOM     10  C   UNL     1      -2.416  -0.327  -0.640  1.00  0.00     0.117 C 
ATOM     11  N   UNL     1      -2.927  -1.520  -0.839  1.00  0.00    -0.269 NA
ATOM     12  N   UNL     1      -2.912   0.373   0.439  1.00  0.00    -0.370 N 
ATOM     13  C   UNL     1      -3.918  -1.681   0.264  1.00  0.00     0.165 C 
ATOM     14  C   UNL     1      -3.631  -0.562   1.269  1.00  0.00     0.138 C 
ATOM     15  H   UNL     1      -2.261   1.000   0.901  1.00  0.00     0.161 HD
ENDBRANCH   9  10
ENDBRANCH   1   9
BRANCH   1  16
ATOM     16  C   UNL     1      -0.017   1.723  -0.074  1.00  0.00     0.045 A 
ATOM     17  C   UNL     1      -0.491   2.943  -0.581  1.00  0.00     0.026 A 
ATOM     18  C   UNL     1       0.519   1.725   1.229  1.00  0.00     0.072 A 
ATOM     19  C   UNL     1      -0.446   4.115   0.182  1.00  0.00     0.006 A 
ATOM     20  C   UNL     1       0.562   2.896   1.983  1.00  0.00     0.117 A 
ATOM     21  C   UNL     1       0.078   4.090   1.471  1.00  0.00     0.046 A 
BRANCH  20  22
ATOM     22  O   UNL     1       1.073   2.906   3.248  1.00  0.00    -0.508 OA
ATOM     23  H   UNL     1       1.441   2.027   3.439  1.00  0.00     0.293 HD
ENDBRANCH  20  22
ENDBRANCH   1  16
TORSDOF 5
