REMARK SMILES CCOCCn1c(C2CCN(CCc3ccc(C(C)(C)C(=O)O)cc3)CC2)nc2ccccc21
REMARK SMILES IDX 8 1 9 2 10 3 11 4 26 5 27 6 7 7 6 8 34 9 28 10 29 11 33 12
REMARK SMILES IDX 30 13 32 14 31 15 5 16 4 17 3 18 2 19 1 20 12 21 13 22 14 23
REMARK SMILES IDX 15 24 25 25 16 26 24 27 17 28 18 29 19 30 20 31 21 32 22 33
REMARK SMILES IDX 23 34
REMARK H PARENT 23 35
REMARK Flexibility Score: inf
ROOT
ATOM      1  C   UNL     1       2.338   0.460   0.617  1.00  0.00     0.058 C 
ATOM      2  C   UNL     1       1.577   0.170   1.912  1.00  0.00     0.027 C 
ATOM      3  C   UNL     1       0.166  -0.335   1.611  1.00  0.00     0.085 C 
ATOM      4  N   UNL     1      -0.589   0.619   0.785  1.00  0.00    -0.303 NA
ATOM      5  C   UNL     1       0.106   0.894  -0.482  1.00  0.00     0.085 C 
ATOM      6  C   UNL     1       1.520   1.428  -0.246  1.00  0.00     0.027 C 
ENDROOT
BRANCH   1   7
ATOM      7  C   UNL     1       3.710   1.003   0.909  1.00  0.00     0.113 A 
ATOM      8  N   UNL     1       4.849   0.229   1.034  1.00  0.00    -0.325 N 
ATOM      9  C   UNL     1       5.911   1.067   1.290  1.00  0.00     0.068 A 
ATOM     10  N   UNL     1       3.996   2.277   1.090  1.00  0.00    -0.233 NA
ATOM     11  C   UNL     1       5.345   2.336   1.325  1.00  0.00     0.089 A 
ATOM     12  C   UNL     1       7.281   0.849   1.487  1.00  0.00     0.028 A 
ATOM     13  C   UNL     1       6.158   3.451   1.576  1.00  0.00     0.030 A 
ATOM     14  C   UNL     1       8.078   1.973   1.735  1.00  0.00     0.002 A 
ATOM     15  C   UNL     1       7.528   3.254   1.782  1.00  0.00     0.002 A 
BRANCH   8  16
ATOM     16  C   UNL     1       4.926  -1.221   0.958  1.00  0.00     0.152 C 
BRANCH  16  17
ATOM     17  C   UNL     1       5.205  -1.720  -0.457  1.00  0.00     0.182 C 
BRANCH  17  18
ATOM     18  O   UNL     1       6.605  -1.631  -0.728  1.00  0.00    -0.380 OA
BRANCH  18  19
ATOM     19  C   UNL     1       6.912  -1.996  -2.071  1.00  0.00     0.157 C 
ATOM     20  C   UNL     1       8.408  -1.861  -2.273  1.00  0.00     0.035 C 
ENDBRANCH  18  19
ENDBRANCH  17  18
ENDBRANCH  16  17
ENDBRANCH   8  16
ENDBRANCH   1   7
BRANCH   4  21
ATOM     21  C   UNL     1      -1.961   0.118   0.564  1.00  0.00     0.089 C 
BRANCH  21  22
ATOM     22  C   UNL     1      -2.930   1.198   0.050  1.00  0.00     0.051 C 
BRANCH  22  23
ATOM     23  C   UNL     1      -4.340   0.666  -0.061  1.00  0.00    -0.047 A 
ATOM     24  C   UNL     1      -4.837   0.212  -1.287  1.00  0.00     0.004 A 
ATOM     25  C   UNL     1      -5.162   0.590   1.066  1.00  0.00     0.004 A 
ATOM     26  C   UNL     1      -6.135  -0.303  -1.385  1.00  0.00     0.005 A 
ATOM     27  C   UNL     1      -6.455   0.071   0.968  1.00  0.00     0.005 A 
ATOM     28  C   UNL     1      -6.972  -0.380  -0.261  1.00  0.00    -0.031 A 
BRANCH  28  29
ATOM     29  C   UNL     1      -8.395  -0.960  -0.325  1.00  0.00     0.087 C 
ATOM     30  C   UNL     1      -8.391  -2.337   0.375  1.00  0.00     0.028 C 
ATOM     31  C   UNL     1      -8.936  -1.177  -1.755  1.00  0.00     0.028 C 
BRANCH  29  32
ATOM     32  C   UNL     1      -9.392  -0.042   0.395  1.00  0.00     0.313 C 
ATOM     33  O   UNL     1      -9.951  -0.262   1.460  1.00  0.00    -0.251 OA
BRANCH  32  34
ATOM     34  O   UNL     1      -9.612   1.129  -0.241  1.00  0.00    -0.481 OA
ATOM     35  H   UNL     1     -10.209   1.619   0.362  1.00  0.00     0.296 HD
ENDBRANCH  32  34
ENDBRANCH  29  32
ENDBRANCH  28  29
ENDBRANCH  22  23
ENDBRANCH  21  22
ENDBRANCH   4  21
TORSDOF 11
