REMARK SMILES COC(=O)Nc1c(N)nc(-c2nn(Cc3ccccc3F)c3ncc(F)cc23)nc1N
REMARK SMILES IDX 11 1 12 2 13 3 22 4 23 5 24 6 25 7 26 8 27 9 28 10 10 11
REMARK SMILES IDX 6 12 7 13 30 14 9 15 29 16 5 17 3 18 4 19 2 21 1 22 8 23
REMARK SMILES IDX 31 26 14 29 15 30 16 31 20 32 17 33 19 34 21 35 18 36
REMARK H PARENT 5 20 8 24 8 25 31 27 31 28
REMARK Flexibility Score: inf
ROOT
ATOM      1  C   UNL     1      -0.503   1.052  -0.030  1.00  0.00     0.139 A 
ATOM      2  N   UNL     1      -1.401   0.742   0.933  1.00  0.00    -0.166 NA
ATOM      3  N   UNL     1      -2.583   1.189   0.456  1.00  0.00    -0.242 N 
ATOM      4  C   UNL     1      -2.487   1.811  -0.756  1.00  0.00     0.159 A 
ATOM      5  N   UNL     1      -3.495   2.373  -1.457  1.00  0.00    -0.234 NA
ATOM      6  C   UNL     1      -3.087   2.894  -2.639  1.00  0.00     0.152 A 
ATOM      7  C   UNL     1      -1.785   2.880  -3.114  1.00  0.00     0.142 A 
ATOM      8  F   UNL     1      -1.492   3.427  -4.301  1.00  0.00    -0.205 F 
ATOM      9  C   UNL     1      -0.778   2.295  -2.354  1.00  0.00     0.055 A 
ATOM     10  C   UNL     1      -1.147   1.734  -1.116  1.00  0.00     0.053 A 
ENDROOT
BRANCH   1  11
ATOM     11  C   UNL     1       0.928   0.705   0.086  1.00  0.00     0.184 A 
ATOM     12  C   UNL     1       3.533  -0.016   0.275  1.00  0.00     0.129 A 
ATOM     13  C   UNL     1       3.017   0.691  -0.814  1.00  0.00     0.153 A 
ATOM     14  C   UNL     1       2.628  -0.257   1.301  1.00  0.00     0.153 A 
ATOM     15  N   UNL     1       1.732   1.040  -0.939  1.00  0.00    -0.207 NA
ATOM     16  N   UNL     1       1.335   0.089   1.212  1.00  0.00    -0.207 NA
BRANCH  12  17
ATOM     17  N   UNL     1       4.891  -0.409   0.207  1.00  0.00    -0.285 N 
ATOM     18  C   UNL     1       5.546  -1.351   0.937  1.00  0.00     0.411 C 
ATOM     19  O   UNL     1       5.098  -2.062   1.825  1.00  0.00    -0.224 OA
ATOM     20  H   UNL     1       5.393  -0.115  -0.621  1.00  0.00     0.173 HD
BRANCH  18  21
ATOM     21  O   UNL     1       6.825  -1.421   0.480  1.00  0.00    -0.453 OA
ATOM     22  C   UNL     1       7.641  -2.380   1.156  1.00  0.00     0.284 C 
ENDBRANCH  18  21
ENDBRANCH  12  17
BRANCH  13  23
ATOM     23  N   UNL     1       3.857   1.082  -1.875  1.00  0.00    -0.382 N 
ATOM     24  H   UNL     1       4.583   1.705  -1.531  1.00  0.00     0.158 HD
ATOM     25  H   UNL     1       3.268   1.576  -2.545  1.00  0.00     0.158 HD
ENDBRANCH  13  23
BRANCH  14  26
ATOM     26  N   UNL     1       3.000  -0.732   2.553  1.00  0.00    -0.382 N 
ATOM     27  H   UNL     1       3.629  -1.537   2.496  1.00  0.00     0.158 HD
ATOM     28  H   UNL     1       2.165  -0.916   3.100  1.00  0.00     0.158 HD
ENDBRANCH  14  26
ENDBRANCH   1  11
BRANCH   3  29
ATOM     29  C   UNL     1      -3.799   1.000   1.234  1.00  0.00     0.185 C 
BRANCH  29  30
ATOM     30  C   UNL     1      -4.519  -0.263   0.840  1.00  0.00     0.009 A 
ATOM     31  C   UNL     1      -3.952  -1.527   1.073  1.00  0.00     0.008 A 
ATOM     32  C   UNL     1      -5.774  -0.201   0.231  1.00  0.00     0.128 A 
ATOM     33  C   UNL     1      -4.629  -2.689   0.693  1.00  0.00     0.001 A 
ATOM     34  C   UNL     1      -6.454  -1.356  -0.148  1.00  0.00     0.039 A 
ATOM     35  F   UNL     1      -6.354   0.987   0.010  1.00  0.00    -0.207 F 
ATOM     36  C   UNL     1      -5.879  -2.604   0.082  1.00  0.00     0.003 A 
ENDBRANCH  29  30
ENDBRANCH   3  29
TORSDOF 7
