REMARK SMILES CS(=O)(=O)CCCn1c(Cn2c(=O)n(CC(F)(F)F)c3ccncc32)cc2cc(Cl)ccc21
REMARK SMILES IDX 8 1 9 2 26 3 27 4 33 5 32 6 31 7 29 8 30 9 28 10 7 11 6 12
REMARK SMILES IDX 5 13 2 14 1 15 3 16 4 17 10 18 11 19 12 20 25 21 13 22 14 23
REMARK SMILES IDX 20 24 24 25 21 26 23 27 22 28 15 29 16 30 17 31 18 32 19 33
REMARK H PARENT
REMARK Flexibility Score: inf
ROOT
ATOM      1  N   UNL     1      -1.351  -0.794   0.008  1.00  0.00    -0.343 N 
ATOM      2  C   UNL     1      -0.115  -0.547   0.574  1.00  0.00     0.039 A 
ATOM      3  C   UNL     1       0.257  -1.699   1.246  1.00  0.00     0.034 A 
ATOM      4  C   UNL     1      -0.758  -2.671   1.074  1.00  0.00     0.001 A 
ATOM      5  C   UNL     1      -1.761  -2.088   0.297  1.00  0.00     0.048 A 
ATOM      6  C   UNL     1      -2.928  -2.793  -0.049  1.00  0.00     0.028 A 
ATOM      7  C   UNL     1      -3.062  -4.110   0.402  1.00  0.00     0.023 A 
ATOM      8  C   UNL     1      -2.067  -4.701   1.174  1.00  0.00     0.041 A 
ATOM      9  Cl  UNL     1      -2.265  -6.325   1.714  1.00  0.00    -0.084 Cl
ATOM     10  C   UNL     1      -0.912  -3.999   1.520  1.00  0.00     0.030 A 
ENDROOT
BRANCH   1  11
ATOM     11  C   UNL     1      -2.147   0.154  -0.761  1.00  0.00     0.123 C 
BRANCH  11  12
ATOM     12  C   UNL     1      -2.986   1.054   0.143  1.00  0.00     0.038 C 
BRANCH  12  13
ATOM     13  C   UNL     1      -3.898   1.953  -0.680  1.00  0.00     0.138 C 
BRANCH  13  14
ATOM     14  S   UNL     1      -4.739   3.188   0.296  1.00  0.00     0.147 S 
ATOM     15  C   UNL     1      -5.730   2.258   1.443  1.00  0.00     0.158 C 
ATOM     16  O   UNL     1      -5.646   3.886  -0.595  1.00  0.00    -0.229 OA
ATOM     17  O   UNL     1      -3.738   3.916   1.052  1.00  0.00    -0.229 OA
ENDBRANCH  13  14
ENDBRANCH  12  13
ENDBRANCH  11  12
ENDBRANCH   1  11
BRANCH   2  18
ATOM     18  C   UNL     1       0.623   0.755   0.489  1.00  0.00     0.181 C 
BRANCH  18  19
ATOM     19  N   UNL     1       1.995   0.526   0.123  1.00  0.00    -0.284 N 
ATOM     20  C   UNL     1       3.101   0.749   0.966  1.00  0.00     0.329 C 
ATOM     21  C   UNL     1       2.463   0.121  -1.134  1.00  0.00     0.088 A 
ATOM     22  O   UNL     1       3.089   1.146   2.119  1.00  0.00    -0.248 OA
ATOM     23  N   UNL     1       4.248   0.429   0.208  1.00  0.00    -0.283 N 
ATOM     24  C   UNL     1       3.853   0.075  -1.090  1.00  0.00     0.073 A 
ATOM     25  C   UNL     1       1.818  -0.194  -2.301  1.00  0.00     0.139 A 
ATOM     26  C   UNL     1       4.600  -0.262  -2.193  1.00  0.00     0.049 A 
ATOM     27  N   UNL     1       2.508  -0.534  -3.417  1.00  0.00    -0.262 NA
ATOM     28  C   UNL     1       3.870  -0.558  -3.336  1.00  0.00     0.113 A 
BRANCH  23  29
ATOM     29  C   UNL     1       5.604   0.642   0.664  1.00  0.00     0.243 C 
BRANCH  29  30
ATOM     30  C   UNL     1       6.156   2.028   0.356  1.00  0.00     0.406 C 
ATOM     31  F   UNL     1       5.377   3.018   0.838  1.00  0.00    -0.169 F 
ATOM     32  F   UNL     1       7.388   2.175   0.898  1.00  0.00    -0.169 F 
ATOM     33  F   UNL     1       6.286   2.215  -0.979  1.00  0.00    -0.169 F 
ENDBRANCH  29  30
ENDBRANCH  23  29
ENDBRANCH  18  19
ENDBRANCH   2  18
TORSDOF 8
