REMARK SMILES CC[C@@H]1CN(C(=O)NCC(F)(F)F)C[C@@H]1c1cnc2cnc3[nH]ccc3n12
REMARK SMILES IDX 6 1 7 2 8 3 5 5 3 6 4 7 15 8 14 9 2 10 1 11 16 12 17 13
REMARK SMILES IDX 27 14 18 15 19 16 26 17 20 18 22 19 25 20 21 21 23 22 24 23
REMARK SMILES IDX 9 25 10 26 11 27 12 28 13 29
REMARK H PARENT 8 4 23 24
REMARK Flexibility Score: inf
ROOT
ATOM      1  C   UNL     1      -3.110  -0.754  -0.708  1.00  0.00     0.317 C 
ATOM      2  O   UNL     1      -3.387  -1.719  -1.413  1.00  0.00    -0.249 OA
ATOM      3  N   UNL     1      -4.012  -0.216   0.170  1.00  0.00    -0.329 N 
ATOM      4  H   UNL     1      -3.878   0.755   0.406  1.00  0.00     0.165 HD
ENDROOT
BRANCH   1   5
ATOM      5  N   UNL     1      -1.877  -0.159  -0.712  1.00  0.00    -0.324 N 
ATOM      6  C   UNL     1       0.003   1.247  -0.399  1.00  0.00     0.019 C 
ATOM      7  C   UNL     1      -1.402   0.933   0.126  1.00  0.00     0.125 C 
ATOM      8  C   UNL     1       0.493  -0.113  -0.949  1.00  0.00     0.062 C 
ATOM      9  C   UNL     1      -0.805  -0.687  -1.545  1.00  0.00     0.131 C 
BRANCH   6  10
ATOM     10  C   UNL     1       0.908   1.943   0.621  1.00  0.00     0.003 C 
ATOM     11  C   UNL     1       0.386   3.317   1.021  1.00  0.00     0.004 C 
ENDBRANCH   6  10
BRANCH   8  12
ATOM     12  C   UNL     1       1.096  -1.016   0.091  1.00  0.00     0.048 A 
ATOM     13  C   UNL     1       0.500  -1.870   1.011  1.00  0.00     0.136 A 
ATOM     14  N   UNL     1       2.445  -1.172   0.325  1.00  0.00    -0.292 N 
ATOM     15  N   UNL     1       1.424  -2.519   1.791  1.00  0.00    -0.235 NA
ATOM     16  C   UNL     1       2.583  -2.084   1.351  1.00  0.00     0.156 A 
ATOM     17  C   UNL     1       3.623  -0.626  -0.219  1.00  0.00     0.092 A 
ATOM     18  C   UNL     1       3.898  -2.462   1.831  1.00  0.00     0.161 C 
ATOM     19  C   UNL     1       4.808  -1.071   0.333  1.00  0.00     0.154 A 
ATOM     20  C   UNL     1       3.908   0.308  -1.227  1.00  0.00     0.048 A 
ATOM     21  N   UNL     1       5.009  -1.969   1.337  1.00  0.00    -0.233 NA
ATOM     22  N   UNL     1       5.822  -0.432  -0.323  1.00  0.00    -0.345 N 
ATOM     23  C   UNL     1       5.287   0.411  -1.272  1.00  0.00     0.086 A 
ATOM     24  H   UNL     1       6.804  -0.568  -0.126  1.00  0.00     0.168 HD
ENDBRANCH   8  12
ENDBRANCH   1   5
BRANCH   3  25
ATOM     25  C   UNL     1      -5.395  -0.697   0.168  1.00  0.00     0.233 C 
BRANCH  25  26
ATOM     26  C   UNL     1      -6.280  -0.114  -0.937  1.00  0.00     0.405 C 
ATOM     27  F   UNL     1      -6.287   1.241  -0.863  1.00  0.00    -0.169 F 
ATOM     28  F   UNL     1      -7.560  -0.526  -0.786  1.00  0.00    -0.169 F 
ATOM     29  F   UNL     1      -5.883  -0.454  -2.177  1.00  0.00    -0.169 F 
ENDBRANCH  25  26
ENDBRANCH   3  25
TORSDOF 5
