REMARK SMILES CC1=C(C(=O)N2CCC[C@H]2CN2CCCC2)[C@@H](C)C(/C=C2\C(=O)Nc3ccc(S(=O)(=O)Cc4c(Cl)cccc4Cl)cc32)=N1
REMARK SMILES IDX 3 1 17 2 18 3 2 4 1 5 43 6 19 7 4 8 5 9 6 10 7 11 10 12 8 13
REMARK SMILES IDX 9 14 11 15 12 16 13 17 16 18 14 19 15 20 20 21 21 22 22 23
REMARK SMILES IDX 42 24 24 25 23 26 25 27 41 28 26 30 28 31 27 32 29 33 30 34
REMARK SMILES IDX 31 35 32 36 33 37 34 38 39 39 35 40 36 41 40 42 38 43 37 44
REMARK H PARENT 24 29
REMARK Flexibility Score: inf
ROOT
ATOM      1  C   UNL     1      14.812  10.976   1.132  1.00  0.00     0.047 C 
ATOM      2  C   UNL     1      15.945  11.258   1.972  1.00  0.00     0.073 C 
ATOM      3  C   UNL     1      17.150  12.133   1.638  1.00  0.00     0.020 C 
ATOM      4  C   UNL     1      13.978  10.132   1.866  1.00  0.00     0.047 C 
ATOM      5  C   UNL     1      12.659   9.544   1.419  1.00  0.00     0.067 C 
ATOM      6  N   UNL     1      14.532   9.899   3.083  1.00  0.00    -0.257 NA
ATOM      7  C   UNL     1      15.725  10.571   3.172  1.00  0.00     0.049 C 
ENDROOT
BRANCH   1   8
ATOM      8  C   UNL     1      14.546  11.452  -0.255  1.00  0.00     0.252 C 
ATOM      9  O   UNL     1      15.336  11.065  -1.107  1.00  0.00    -0.269 OA
BRANCH   8  10
ATOM     10  N   UNL     1      13.493  12.261  -0.622  1.00  0.00    -0.335 N 
ATOM     11  C   UNL     1      12.504  12.869   0.286  1.00  0.00     0.120 C 
ATOM     12  C   UNL     1      13.181  12.699  -1.990  1.00  0.00     0.099 C 
ATOM     13  C   UNL     1      12.009  14.112  -0.437  1.00  0.00     0.024 C 
ATOM     14  C   UNL     1      11.963  13.621  -1.883  1.00  0.00     0.028 C 
BRANCH  12  15
ATOM     15  C   UNL     1      14.314  13.322  -2.821  1.00  0.00     0.109 C 
BRANCH  15  16
ATOM     16  N   UNL     1      15.185  12.271  -3.417  1.00  0.00    -0.301 NA
ATOM     17  C   UNL     1      16.146  12.775  -4.406  1.00  0.00     0.084 C 
ATOM     18  C   UNL     1      14.510  11.200  -4.179  1.00  0.00     0.084 C 
ATOM     19  C   UNL     1      16.716  11.534  -5.114  1.00  0.00     0.017 C 
ATOM     20  C   UNL     1      15.612  10.474  -4.956  1.00  0.00     0.017 C 
ENDBRANCH  15  16
ENDBRANCH  12  15
ENDBRANCH   8  10
ENDBRANCH   1   8
BRANCH   7  21
ATOM     21  C   UNL     1      16.639  10.567   4.349  1.00  0.00     0.039 C 
ATOM     22  C   UNL     1      16.451   9.895   5.593  1.00  0.00     0.051 C 
ATOM     23  C   UNL     1      15.335   9.028   6.080  1.00  0.00     0.256 C 
ATOM     24  C   UNL     1      17.398   9.916   6.739  1.00  0.00     0.012 A 
ATOM     25  N   UNL     1      15.629   8.617   7.369  1.00  0.00    -0.321 N 
ATOM     26  O   UNL     1      14.312   8.716   5.462  1.00  0.00    -0.269 OA
ATOM     27  C   UNL     1      16.853   9.132   7.778  1.00  0.00     0.049 A 
ATOM     28  C   UNL     1      18.658  10.559   6.894  1.00  0.00     0.031 A 
ATOM     29  H   UNL     1      15.025   8.014   7.945  1.00  0.00     0.170 HD
ATOM     30  C   UNL     1      17.547   8.958   9.016  1.00  0.00     0.028 A 
ATOM     31  C   UNL     1      19.396  10.396   8.127  1.00  0.00     0.068 A 
ATOM     32  C   UNL     1      18.819   9.593   9.176  1.00  0.00     0.022 A 
BRANCH  31  33
ATOM     33  S   UNL     1      20.993  11.141   8.343  1.00  0.00     0.182 S 
ATOM     34  O   UNL     1      21.429  10.901   9.710  1.00  0.00    -0.223 OA
ATOM     35  O   UNL     1      20.878  12.549   8.013  1.00  0.00    -0.223 OA
BRANCH  33  36
ATOM     36  C   UNL     1      22.200  10.325   7.231  1.00  0.00     0.180 C 
BRANCH  36  37
ATOM     37  C   UNL     1      21.810  10.385   5.728  1.00  0.00     0.005 A 
ATOM     38  C   UNL     1      21.146   9.261   5.106  1.00  0.00     0.046 A 
ATOM     39  C   UNL     1      22.097  11.549   4.918  1.00  0.00     0.046 A 
ATOM     40  Cl  UNL     1      20.768   7.835   6.013  1.00  0.00    -0.084 Cl
ATOM     41  C   UNL     1      20.776   9.310   3.722  1.00  0.00     0.021 A 
ATOM     42  Cl  UNL     1      22.894  12.948   5.562  1.00  0.00    -0.084 Cl
ATOM     43  C   UNL     1      21.717  11.573   3.533  1.00  0.00     0.021 A 
ATOM     44  C   UNL     1      21.059  10.461   2.933  1.00  0.00     0.003 A 
ENDBRANCH  36  37
ENDBRANCH  33  36
ENDBRANCH  31  33
ENDBRANCH   7  21
TORSDOF 8
