REMARK SMILES NS(=O)(=O)c1cc2c(cc1Cl)N=CNS2(=O)=O
REMARK SMILES IDX 2 1 3 2 4 3 1 4 5 7 6 8 10 9 7 10 9 11 11 12 8 13 15 14
REMARK SMILES IDX 12 15 14 16 16 17 17 18 13 19
REMARK H PARENT 1 5 1 6 14 20
REMARK Flexibility Score: inf
ROOT
ATOM      1  S   UNL     1      -3.194   0.012   0.078  1.00  0.00     0.239 S 
ATOM      2  O   UNL     1      -3.752   0.346   1.366  1.00  0.00    -0.207 OA
ATOM      3  O   UNL     1      -3.770   0.425  -1.178  1.00  0.00    -0.207 OA
ENDROOT
BRANCH   1   4
ATOM      4  N   UNL     1      -3.222  -1.672   0.026  1.00  0.00    -0.225 NA
ATOM      5  H   UNL     1      -3.687  -1.970  -0.835  1.00  0.00     0.137 HD
ATOM      6  H   UNL     1      -3.680  -2.024   0.869  1.00  0.00     0.137 HD
ENDBRANCH   1   4
BRANCH   1   7
ATOM      7  C   UNL     1      -1.481   0.430   0.081  1.00  0.00     0.102 A 
ATOM      8  C   UNL     1      -0.508  -0.575   0.061  1.00  0.00     0.048 A 
ATOM      9  C   UNL     1      -1.093   1.771   0.101  1.00  0.00     0.063 A 
ATOM     10  C   UNL     1       0.846  -0.216   0.062  1.00  0.00     0.114 A 
ATOM     11  C   UNL     1       0.272   2.096   0.105  1.00  0.00     0.051 A 
ATOM     12  Cl  UNL     1      -2.209   3.087   0.130  1.00  0.00    -0.083 Cl
ATOM     13  C   UNL     1       1.264   1.108   0.089  1.00  0.00     0.087 A 
ATOM     14  S   UNL     1       2.056  -1.471  -0.004  1.00  0.00     0.264 S 
ATOM     15  N   UNL     1       2.595   1.541   0.131  1.00  0.00    -0.237 NA
ATOM     16  N   UNL     1       3.468  -0.666   0.293  1.00  0.00    -0.270 N 
ATOM     17  O   UNL     1       1.842  -2.348   1.126  1.00  0.00    -0.201 OA
ATOM     18  O   UNL     1       2.099  -1.971  -1.358  1.00  0.00    -0.201 OA
ATOM     19  C   UNL     1       3.574   0.718   0.261  1.00  0.00     0.207 C 
ATOM     20  H   UNL     1       4.172  -1.220   0.773  1.00  0.00     0.181 HD
ENDBRANCH   1   7
TORSDOF 2
