REMARK SMILES CC1=C(C(=O)O)N2C(=O)[C@@H](NC(=O)[C@H](N)c3ccc(O)cc3)[C@H]2SC1
REMARK SMILES IDX 11 1 12 2 13 3 10 5 1 6 2 7 3 8 25 9 7 10 24 11 8 12 23 13
REMARK SMILES IDX 9 14 4 15 5 16 6 17 14 19 15 20 16 23 17 24 22 25 18 26
REMARK SMILES IDX 21 27 19 28 20 29
REMARK H PARENT 11 4 6 18 15 21 15 22 20 30
REMARK Flexibility Score: inf
ROOT
ATOM      1  N   UNL     1       0.288  -1.619   0.170  1.00  0.00    -0.340 N 
ATOM      2  C   UNL     1       1.518  -1.553  -0.456  1.00  0.00     0.242 C 
ATOM      3  O   UNL     1       1.685  -1.927  -1.613  1.00  0.00    -0.273 OA
ATOM      4  H   UNL     1       0.273  -1.193   1.100  1.00  0.00     0.164 HD
ENDROOT
BRANCH   1   5
ATOM      5  C   UNL     1      -0.966  -1.793  -0.602  1.00  0.00     0.205 C 
ATOM      6  C   UNL     1      -5.501   0.774   1.639  1.00  0.00     0.043 C 
ATOM      7  C   UNL     1      -4.345  -0.066   1.156  1.00  0.00    -0.032 C 
ATOM      8  C   UNL     1      -3.698   0.146  -0.014  1.00  0.00     0.130 C 
ATOM      9  C   UNL     1      -3.955  -1.158   2.127  1.00  0.00     0.105 C 
ATOM     10  N   UNL     1      -2.728  -0.700  -0.462  1.00  0.00    -0.289 N 
ATOM     11  S   UNL     1      -2.201  -1.620   1.996  1.00  0.00    -0.129 SA
ATOM     12  C   UNL     1      -1.588  -0.465  -1.155  1.00  0.00     0.253 C 
ATOM     13  C   UNL     1      -2.295  -1.909   0.204  1.00  0.00     0.181 C 
ATOM     14  O   UNL     1      -1.216   0.482  -1.808  1.00  0.00    -0.272 OA
BRANCH   8  15
ATOM     15  C   UNL     1      -4.019   1.308  -0.885  1.00  0.00     0.352 C 
ATOM     16  O   UNL     1      -4.423   1.247  -2.032  1.00  0.00    -0.245 OA
BRANCH  15  17
ATOM     17  O   UNL     1      -3.789   2.480  -0.266  1.00  0.00    -0.477 OA
ATOM     18  H   UNL     1      -3.950   3.141  -0.971  1.00  0.00     0.297 HD
ENDBRANCH  15  17
ENDBRANCH   8  15
ENDBRANCH   1   5
BRANCH   2  19
ATOM     19  C   UNL     1       2.642  -0.997   0.460  1.00  0.00     0.172 C 
BRANCH  19  20
ATOM     20  N   UNL     1       2.042  -0.252   1.602  1.00  0.00    -0.316 NA
ATOM     21  H   UNL     1       1.707   0.643   1.237  1.00  0.00     0.119 HD
ATOM     22  H   UNL     1       2.807   0.003   2.229  1.00  0.00     0.119 HD
ENDBRANCH  19  20
BRANCH  19  23
ATOM     23  C   UNL     1       3.646  -0.112  -0.255  1.00  0.00    -0.022 A 
ATOM     24  C   UNL     1       3.243   0.846  -1.202  1.00  0.00     0.010 A 
ATOM     25  C   UNL     1       5.009  -0.198   0.076  1.00  0.00     0.010 A 
ATOM     26  C   UNL     1       4.180   1.679  -1.819  1.00  0.00     0.046 A 
ATOM     27  C   UNL     1       5.944   0.637  -0.538  1.00  0.00     0.046 A 
ATOM     28  C   UNL     1       5.524   1.565  -1.482  1.00  0.00     0.115 A 
BRANCH  28  29
ATOM     29  O   UNL     1       6.471   2.357  -2.060  1.00  0.00    -0.508 OA
ATOM     30  H   UNL     1       6.040   2.905  -2.736  1.00  0.00     0.293 HD
ENDBRANCH  28  29
ENDBRANCH  19  23
ENDBRANCH   2  19
TORSDOF 7
