REMARK SMILES COCCOc1cnc2ccn([C@H](C)c3nnc4c(F)cc(-c5cnn(C)c5)cn34)c(=O)c2c1
REMARK SMILES IDX 6 1 34 2 33 3 9 4 10 5 11 6 12 7 31 8 32 9 8 10 7 11 5 12
REMARK SMILES IDX 4 13 3 14 2 15 1 16 13 17 14 18 15 19 16 20 30 21 17 22
REMARK SMILES IDX 18 23 29 24 19 25 22 26 21 27 20 28 23 29 28 30 24 31 26 32
REMARK SMILES IDX 25 33 27 34
REMARK H PARENT
REMARK Flexibility Score: inf
ROOT
ATOM      1  C   UNL     1       4.486   0.758   0.761  1.00  0.00     0.138 A 
ATOM      2  C   UNL     1       3.681   0.342  -0.295  1.00  0.00     0.064 A 
ATOM      3  C   UNL     1       2.368  -0.063  -0.029  1.00  0.00     0.069 A 
ATOM      4  C   UNL     1       1.907  -0.039   1.277  1.00  0.00     0.077 A 
ATOM      5  C   UNL     1       0.550  -0.461   1.577  1.00  0.00     0.047 C 
ATOM      6  C   UNL     1      -0.250  -0.872   0.588  1.00  0.00     0.092 C 
ATOM      7  N   UNL     1       0.162  -0.914  -0.737  1.00  0.00    -0.304 N 
ATOM      8  C   UNL     1       1.458  -0.503  -1.108  1.00  0.00     0.260 C 
ATOM      9  O   UNL     1       1.863  -0.475  -2.268  1.00  0.00    -0.269 OA
ATOM     10  N   UNL     1       2.659   0.366   2.325  1.00  0.00    -0.252 NA
ATOM     11  C   UNL     1       3.928   0.751   2.038  1.00  0.00     0.158 A 
ENDROOT
BRANCH   1  12
ATOM     12  O   UNL     1       5.780   1.181   0.677  1.00  0.00    -0.490 OA
BRANCH  12  13
ATOM     13  C   UNL     1       6.393   1.152  -0.619  1.00  0.00     0.258 C 
BRANCH  13  14
ATOM     14  C   UNL     1       7.843   1.630  -0.498  1.00  0.00     0.201 C 
BRANCH  14  15
ATOM     15  O   UNL     1       8.745   0.589  -0.108  1.00  0.00    -0.381 OA
ATOM     16  C   UNL     1       8.608   0.196   1.251  1.00  0.00     0.195 C 
ENDBRANCH  14  15
ENDBRANCH  13  14
ENDBRANCH  12  13
ENDBRANCH   1  12
BRANCH   7  17
ATOM     17  C   UNL     1      -0.729  -1.337  -1.843  1.00  0.00     0.156 C 
ATOM     18  C   UNL     1      -1.259  -0.145  -2.645  1.00  0.00     0.040 C 
BRANCH  17  19
ATOM     19  C   UNL     1      -1.782  -2.342  -1.457  1.00  0.00     0.160 A 
ATOM     20  N   UNL     1      -1.629  -3.649  -1.593  1.00  0.00    -0.132 NA
ATOM     21  N   UNL     1      -3.056  -2.096  -0.965  1.00  0.00    -0.282 N 
ATOM     22  N   UNL     1      -2.791  -4.275  -1.229  1.00  0.00    -0.127 NA
ATOM     23  C   UNL     1      -3.646  -3.349  -0.863  1.00  0.00     0.197 A 
ATOM     24  C   UNL     1      -3.713  -0.921  -0.592  1.00  0.00     0.103 C 
ATOM     25  C   UNL     1      -4.980  -3.396  -0.397  1.00  0.00     0.168 C 
ATOM     26  C   UNL     1      -4.986  -0.950  -0.134  1.00  0.00     0.005 C 
ATOM     27  C   UNL     1      -5.625  -2.270  -0.052  1.00  0.00     0.053 C 
ATOM     28  F   UNL     1      -5.594  -4.591  -0.294  1.00  0.00    -0.203 F 
BRANCH  26  29
ATOM     29  C   UNL     1      -5.694   0.233   0.263  1.00  0.00     0.021 A 
ATOM     30  C   UNL     1      -5.143   1.419   0.704  1.00  0.00     0.117 A 
ATOM     31  C   UNL     1      -7.087   0.466   0.300  1.00  0.00     0.143 A 
ATOM     32  N   UNL     1      -6.193   2.251   0.972  1.00  0.00    -0.275 N 
ATOM     33  N   UNL     1      -7.392   1.692   0.730  1.00  0.00    -0.181 NA
ATOM     34  C   UNL     1      -6.128   3.604   1.468  1.00  0.00     0.173 C 
ENDBRANCH  26  29
ENDBRANCH  17  19
ENDBRANCH   7  17
TORSDOF 7
