REMARK SMILES Cc1cnc(C(=O)NCCc2ccc(S(=O)(=O)NC(=O)NC3CCCCC3)cc2)cn1
REMARK SMILES IDX 11 1 12 2 13 3 14 4 28 5 29 6 10 7 9 8 8 9 6 10 7 11 5 13
REMARK SMILES IDX 1 14 2 15 3 16 31 17 4 18 30 19 15 20 16 21 17 22 18 23
REMARK SMILES IDX 19 24 20 26 21 27 22 29 23 30 27 31 24 32 26 33 25 34
REMARK H PARENT 8 12 18 25 21 28
REMARK Flexibility Score: inf
ROOT
ATOM      1  C   UNL     1       1.356  -1.318   0.337  1.00  0.00    -0.046 A 
ATOM      2  C   UNL     1       0.649  -1.269  -0.874  1.00  0.00     0.005 A 
ATOM      3  C   UNL     1      -0.567  -1.939  -1.012  1.00  0.00     0.022 A 
ATOM      4  C   UNL     1      -1.088  -2.652   0.069  1.00  0.00     0.087 A 
ATOM      5  C   UNL     1      -0.387  -2.726   1.276  1.00  0.00     0.022 A 
ATOM      6  C   UNL     1       0.832  -2.057   1.408  1.00  0.00     0.005 A 
ENDROOT
BRANCH   1   7
ATOM      7  C   UNL     1       2.681  -0.609   0.470  1.00  0.00     0.057 C 
BRANCH   7   8
ATOM      8  C   UNL     1       3.832  -1.444  -0.095  1.00  0.00     0.121 C 
BRANCH   8   9
ATOM      9  N   UNL     1       5.115  -0.798   0.084  1.00  0.00    -0.350 N 
ATOM     10  C   UNL     1       5.550   0.234  -0.721  1.00  0.00     0.271 C 
ATOM     11  O   UNL     1       4.912   0.685  -1.664  1.00  0.00    -0.267 OA
ATOM     12  H   UNL     1       5.721  -1.061   0.857  1.00  0.00     0.163 HD
BRANCH  10  13
ATOM     13  C   UNL     1       6.884   0.784  -0.351  1.00  0.00     0.146 A 
ATOM     14  C   UNL     1      10.627   2.363   0.654  1.00  0.00     0.068 C 
ATOM     15  C   UNL     1       9.287   1.810   0.283  1.00  0.00     0.056 A 
ATOM     16  C   UNL     1       8.716   0.776   1.022  1.00  0.00     0.135 A 
ATOM     17  N   UNL     1       8.653   2.347  -0.791  1.00  0.00    -0.258 NA
ATOM     18  N   UNL     1       7.508   0.236   0.733  1.00  0.00    -0.248 NA
ATOM     19  C   UNL     1       7.441   1.813  -1.092  1.00  0.00     0.145 A 
ENDBRANCH  10  13
ENDBRANCH   8   9
ENDBRANCH   7   8
ENDBRANCH   1   7
BRANCH   4  20
ATOM     20  S   UNL     1      -2.613  -3.540  -0.112  1.00  0.00     0.265 S 
ATOM     21  O   UNL     1      -2.854  -3.802  -1.513  1.00  0.00    -0.201 OA
ATOM     22  O   UNL     1      -2.593  -4.629   0.846  1.00  0.00    -0.201 OA
BRANCH  20  23
ATOM     23  N   UNL     1      -3.758  -2.484   0.465  1.00  0.00    -0.231 N 
ATOM     24  C   UNL     1      -4.059  -1.256  -0.094  1.00  0.00     0.328 C 
ATOM     25  H   UNL     1      -4.182  -2.795   1.326  1.00  0.00     0.185 HD
ATOM     26  O   UNL     1      -3.483  -0.790  -1.062  1.00  0.00    -0.248 OA
ATOM     27  N   UNL     1      -5.072  -0.626   0.573  1.00  0.00    -0.335 N 
ATOM     28  H   UNL     1      -5.621  -1.184   1.207  1.00  0.00     0.165 HD
BRANCH  27  29
ATOM     29  C   UNL     1      -5.652   0.614   0.079  1.00  0.00     0.083 C 
ATOM     30  C   UNL     1      -6.295   1.401   1.232  1.00  0.00     0.025 C 
ATOM     31  C   UNL     1      -6.664   0.347  -1.039  1.00  0.00     0.025 C 
ATOM     32  C   UNL     1      -7.410   2.349   0.781  1.00  0.00     0.002 C 
ATOM     33  C   UNL     1      -7.210   1.646  -1.637  1.00  0.00     0.002 C 
ATOM     34  C   UNL     1      -7.217   2.818  -0.654  1.00  0.00     0.000 C 
ENDBRANCH  27  29
ENDBRANCH  20  23
ENDBRANCH   4  20
TORSDOF 7
