REMARK SMILES CN1CCC[C@@H]1Cc1c[nH]c2ccc(CCS(=O)(=O)c3ccccc3)cc12
REMARK SMILES IDX 15 1 14 2 8 3 9 4 27 5 10 6 11 7 26 8 12 10 13 11 7 12 6 13
REMARK SMILES IDX 1 14 2 15 3 16 4 17 5 18 16 19 17 20 18 21 19 22 20 23 21 24
REMARK SMILES IDX 25 25 22 26 24 27 23 28
REMARK H PARENT 10 9
REMARK Flexibility Score: inf
ROOT
ATOM      1  C   UNL     1       1.844  -1.595   1.206  1.00  0.00     0.052 C 
ENDROOT
BRANCH   1   2
ATOM      2  C   UNL     1       0.815  -0.490   1.249  1.00  0.00    -0.046 A 
ATOM      3  C   UNL     1      -2.300   0.931  -0.499  1.00  0.00    -0.021 A 
ATOM      4  C   UNL     1      -2.811   2.108   0.016  1.00  0.00     0.087 A 
ATOM      5  C   UNL     1      -1.156   0.601   0.302  1.00  0.00     0.003 A 
ATOM      6  N   UNL     1      -2.058   2.479   1.095  1.00  0.00    -0.361 N 
ATOM      7  C   UNL     1      -1.039   1.578   1.290  1.00  0.00     0.046 A 
ATOM      8  C   UNL     1      -0.207  -0.443   0.283  1.00  0.00     0.014 A 
ATOM      9  H   UNL     1      -2.223   3.294   1.670  1.00  0.00     0.166 HD
ATOM     10  C   UNL     1      -0.035   1.559   2.263  1.00  0.00     0.027 A 
ATOM     11  C   UNL     1       0.885   0.507   2.225  1.00  0.00     0.006 A 
BRANCH   3  12
ATOM     12  C   UNL     1      -2.841   0.174  -1.680  1.00  0.00     0.057 C 
BRANCH  12  13
ATOM     13  C   UNL     1      -4.134  -0.635  -1.430  1.00  0.00     0.060 C 
ATOM     14  C   UNL     1      -6.047   0.790  -2.009  1.00  0.00     0.105 C 
ATOM     15  N   UNL     1      -5.268   0.176  -0.945  1.00  0.00    -0.303 NA
ATOM     16  C   UNL     1      -6.074  -0.682  -0.081  1.00  0.00     0.084 C 
ATOM     17  C   UNL     1      -5.015  -1.461   0.675  1.00  0.00     0.017 C 
ATOM     18  C   UNL     1      -3.965  -1.750  -0.385  1.00  0.00     0.021 C 
ENDBRANCH  12  13
ENDBRANCH   3  12
ENDBRANCH   1   2
BRANCH   1  19
ATOM     19  C   UNL     1       3.084  -1.193   0.415  1.00  0.00     0.147 C 
BRANCH  19  20
ATOM     20  S   UNL     1       4.473  -0.872   1.485  1.00  0.00     0.178 S 
ATOM     21  O   UNL     1       4.190   0.285   2.314  1.00  0.00    -0.224 OA
ATOM     22  O   UNL     1       4.877  -2.129   2.086  1.00  0.00    -0.224 OA
BRANCH  20  23
ATOM     23  C   UNL     1       5.753  -0.394   0.346  1.00  0.00     0.067 A 
ATOM     24  C   UNL     1       6.680  -1.342  -0.094  1.00  0.00     0.020 A 
ATOM     25  C   UNL     1       5.840   0.940  -0.065  1.00  0.00     0.020 A 
ATOM     26  C   UNL     1       7.690  -0.952  -0.973  1.00  0.00     0.001 A 
ATOM     27  C   UNL     1       6.855   1.321  -0.943  1.00  0.00     0.001 A 
ATOM     28  C   UNL     1       7.775   0.377  -1.397  1.00  0.00     0.000 A 
ENDBRANCH  20  23
ENDBRANCH  19  20
ENDBRANCH   1  19
TORSDOF 6
