REMARK SMILES COc1ccc2c3c1O[C@H]1C(=O)CC[C@H]4[C@@H](C2)N(C)CC[C@]314
REMARK SMILES IDX 3 1 4 2 5 3 6 4 7 5 8 6 9 7 10 8 11 9 12 10 13 11 14 12
REMARK SMILES IDX 15 13 16 14 17 15 18 16 19 17 20 18 21 19 22 20 2 21 1 22
REMARK H PARENT
REMARK Flexibility Score: inf
ROOT
ATOM      1  C   UNL     1       3.001   0.222   0.020  1.00  0.00     0.161 A 
ATOM      2  C   UNL     1       2.883   1.568  -0.365  1.00  0.00     0.051 A 
ATOM      3  C   UNL     1       1.619   2.156  -0.601  1.00  0.00     0.008 A 
ATOM      4  C   UNL     1       0.456   1.396  -0.497  1.00  0.00    -0.039 A 
ATOM      5  C   UNL     1       0.613   0.055  -0.201  1.00  0.00     0.012 A 
ATOM      6  C   UNL     1       1.831  -0.510   0.115  1.00  0.00     0.166 A 
ATOM      7  O   UNL     1       1.701  -1.795   0.586  1.00  0.00    -0.477 OA
ATOM      8  C   UNL     1       0.274  -1.989   0.776  1.00  0.00     0.251 C 
ATOM      9  C   UNL     1      -0.119  -1.915   2.249  1.00  0.00     0.174 C 
ATOM     10  O   UNL     1      -0.239  -2.925   2.945  1.00  0.00    -0.295 OA
ATOM     11  C   UNL     1      -0.332  -0.538   2.830  1.00  0.00     0.080 C 
ATOM     12  C   UNL     1      -1.387   0.256   2.063  1.00  0.00     0.014 C 
ATOM     13  C   UNL     1      -1.665  -0.232   0.622  1.00  0.00     0.022 C 
ATOM     14  C   UNL     1      -2.095   0.924  -0.337  1.00  0.00     0.064 C 
ATOM     15  C   UNL     1      -0.939   1.971  -0.574  1.00  0.00     0.055 C 
ATOM     16  N   UNL     1      -2.566   0.398  -1.643  1.00  0.00    -0.303 NA
ATOM     17  C   UNL     1      -3.872  -0.255  -1.559  1.00  0.00     0.105 C 
ATOM     18  C   UNL     1      -1.574  -0.449  -2.318  1.00  0.00     0.085 C 
ATOM     19  C   UNL     1      -0.921  -1.504  -1.416  1.00  0.00     0.032 C 
ATOM     20  C   UNL     1      -0.483  -0.937  -0.049  1.00  0.00     0.049 C 
ENDROOT
BRANCH   1  21
ATOM     21  O   UNL     1       4.158  -0.427   0.335  1.00  0.00    -0.493 OA
ATOM     22  C   UNL     1       5.366   0.309   0.210  1.00  0.00     0.278 C 
ENDBRANCH   1  21
TORSDOF 1
