REMARK SMILES CN(C)[C@@H](CCOc1cccc2ccccc12)c1ccccc1
REMARK SMILES IDX 5 1 4 2 2 3 1 4 3 5 18 6 19 7 23 8 20 9 22 10 21 11 6 12
REMARK SMILES IDX 7 13 8 14 9 15 17 16 10 17 12 18 16 19 11 20 13 21 15 22
REMARK SMILES IDX 14 23
REMARK H PARENT
REMARK Flexibility Score: inf
ROOT
ATOM      1  C   UNL     1      -0.662   0.373   0.007  1.00  0.00     0.065 C 
ENDROOT
BRANCH   1   2
ATOM      2  C   UNL     1      -1.957   0.200  -0.821  1.00  0.00     0.089 C 
BRANCH   2   3
ATOM      3  N   UNL     1      -2.370   1.454  -1.493  1.00  0.00    -0.302 NA
ATOM      4  C   UNL     1      -3.341   1.229  -2.563  1.00  0.00     0.105 C 
ATOM      5  C   UNL     1      -2.837   2.512  -0.600  1.00  0.00     0.105 C 
ENDBRANCH   2   3
BRANCH   2   6
ATOM      6  C   UNL     1      -3.057  -0.510  -0.029  1.00  0.00    -0.031 A 
ATOM      7  C   UNL     1      -3.790  -1.545  -0.638  1.00  0.00     0.005 A 
ATOM      8  C   UNL     1      -3.369  -0.171   1.297  1.00  0.00     0.005 A 
ATOM      9  C   UNL     1      -4.798  -2.217   0.056  1.00  0.00     0.000 A 
ATOM     10  C   UNL     1      -4.378  -0.844   1.991  1.00  0.00     0.000 A 
ATOM     11  C   UNL     1      -5.091  -1.866   1.371  1.00  0.00     0.000 A 
ENDBRANCH   2   6
ENDBRANCH   1   2
BRANCH   1  12
ATOM     12  C   UNL     1       0.510   0.876  -0.837  1.00  0.00     0.231 C 
BRANCH  12  13
ATOM     13  O   UNL     1       1.697   0.933  -0.041  1.00  0.00    -0.493 OA
BRANCH  13  14
ATOM     14  C   UNL     1       2.590  -0.110  -0.104  1.00  0.00     0.127 A 
ATOM     15  C   UNL     1       2.269  -1.385  -0.580  1.00  0.00     0.047 A 
ATOM     16  C   UNL     1       3.895   0.156   0.387  1.00  0.00     0.024 A 
ATOM     17  C   UNL     1       3.230  -2.395  -0.596  1.00  0.00     0.004 A 
ATOM     18  C   UNL     1       4.864  -0.877   0.367  1.00  0.00    -0.015 A 
ATOM     19  C   UNL     1       4.281   1.415   0.898  1.00  0.00     0.012 A 
ATOM     20  C   UNL     1       4.518  -2.142  -0.129  1.00  0.00     0.009 A 
ATOM     21  C   UNL     1       6.162  -0.629   0.845  1.00  0.00     0.009 A 
ATOM     22  C   UNL     1       5.575   1.647   1.370  1.00  0.00     0.001 A 
ATOM     23  C   UNL     1       6.515   0.625   1.343  1.00  0.00     0.001 A 
ENDBRANCH  13  14
ENDBRANCH  12  13
ENDBRANCH   1  12
TORSDOF 6
