REMARK SMILES CCCCN1CCCCC1C(=O)Nc1c(C)cccc1C
REMARK SMILES IDX 5 1 6 2 7 3 8 4 9 5 10 6 4 7 3 8 2 9 1 10 11 11 12 12 13 13
REMARK SMILES IDX 14 15 15 16 20 17 16 18 17 19 19 20 21 21 18 22
REMARK H PARENT 13 14
REMARK Flexibility Score: inf
ROOT
ATOM      1  N   UNL     1       1.865   0.683  -0.468  1.00  0.00    -0.292 NA
ATOM      2  C   UNL     1       2.685   1.799  -0.971  1.00  0.00     0.085 C 
ATOM      3  C   UNL     1       2.427   3.129  -0.256  1.00  0.00     0.016 C 
ATOM      4  C   UNL     1       0.943   3.482  -0.231  1.00  0.00     0.003 C 
ATOM      5  C   UNL     1       0.083   2.303   0.224  1.00  0.00     0.029 C 
ATOM      6  C   UNL     1       0.422   1.037  -0.583  1.00  0.00     0.147 C 
ENDROOT
BRANCH   1   7
ATOM      7  C   UNL     1       2.269   0.249   0.883  1.00  0.00     0.085 C 
BRANCH   7   8
ATOM      8  C   UNL     1       3.602  -0.518   0.907  1.00  0.00     0.015 C 
BRANCH   8   9
ATOM      9  C   UNL     1       3.585  -1.774   0.032  1.00  0.00    -0.002 C 
ATOM     10  C   UNL     1       4.890  -2.546   0.147  1.00  0.00     0.004 C 
ENDBRANCH   8   9
ENDBRANCH   7   8
ENDBRANCH   1   7
BRANCH   6  11
ATOM     11  C   UNL     1      -0.536  -0.160  -0.292  1.00  0.00     0.241 C 
ATOM     12  O   UNL     1      -0.150  -1.307  -0.080  1.00  0.00    -0.273 OA
ATOM     13  N   UNL     1      -1.877   0.201  -0.404  1.00  0.00    -0.324 N 
ATOM     14  H   UNL     1      -2.044   0.960  -1.049  1.00  0.00     0.170 HD
BRANCH  13  15
ATOM     15  C   UNL     1      -2.988  -0.638  -0.135  1.00  0.00     0.047 A 
ATOM     16  C   UNL     1      -4.106  -0.540  -1.001  1.00  0.00    -0.027 A 
ATOM     17  C   UNL     1      -3.050  -1.502   0.981  1.00  0.00    -0.027 A 
ATOM     18  C   UNL     1      -4.133   0.391  -2.186  1.00  0.00     0.046 C 
ATOM     19  C   UNL     1      -5.228  -1.358  -0.786  1.00  0.00     0.005 A 
ATOM     20  C   UNL     1      -4.180  -2.325   1.148  1.00  0.00     0.005 A 
ATOM     21  C   UNL     1      -1.997  -1.584   2.054  1.00  0.00     0.046 C 
ATOM     22  C   UNL     1      -5.258  -2.256   0.273  1.00  0.00     0.001 A 
ENDBRANCH  13  15
ENDBRANCH   6  11
TORSDOF 5
