REMARK SMILES N#CC[C@H](C1CCCC1)n1cc(-c2ncnc3[nH]ccc23)cn1
REMARK SMILES IDX 4 1 3 2 2 3 1 4 5 5 6 6 9 7 7 8 8 9 10 10 11 11 23 12 12 13
REMARK SMILES IDX 22 14 13 15 14 16 21 17 15 18 17 19 20 20 16 21 18 22 19 23
REMARK H PARENT 18 24
REMARK Flexibility Score: inf
ROOT
ATOM      1  C   UNL     1      -1.994   0.237   0.860  1.00  0.00     0.124 C 
ENDROOT
BRANCH   1   2
ATOM      2  C   UNL     1      -2.066  -0.483   2.218  1.00  0.00     0.147 C 
BRANCH   2   3
ATOM      3  C   UNL     1      -1.535   0.342   3.314  1.00  0.00     0.064 C 
ATOM      4  N   UNL     1      -1.140   0.967   4.208  1.00  0.00    -0.198 NA
ENDBRANCH   2   3
ENDBRANCH   1   2
BRANCH   1   5
ATOM      5  C   UNL     1      -2.738  -0.544  -0.264  1.00  0.00     0.015 C 
ATOM      6  C   UNL     1      -2.667   0.136  -1.641  1.00  0.00     0.006 C 
ATOM      7  C   UNL     1      -4.259  -0.608  -0.067  1.00  0.00     0.006 C 
ATOM      8  C   UNL     1      -3.748   1.211  -1.606  1.00  0.00     0.000 C 
ATOM      9  C   UNL     1      -4.788   0.719  -0.603  1.00  0.00     0.000 C 
ENDBRANCH   1   5
BRANCH   1  10
ATOM     10  N   UNL     1      -0.594   0.479   0.500  1.00  0.00    -0.268 N 
ATOM     11  C   UNL     1       0.375  -0.449   0.250  1.00  0.00     0.119 A 
ATOM     12  N   UNL     1      -0.155   1.745   0.383  1.00  0.00    -0.181 NA
ATOM     13  C   UNL     1       1.534   0.253  -0.019  1.00  0.00     0.039 A 
ATOM     14  C   UNL     1       1.134   1.604   0.063  1.00  0.00     0.145 A 
BRANCH  13  15
ATOM     15  C   UNL     1       2.798  -0.367  -0.342  1.00  0.00     0.086 A 
ATOM     16  N   UNL     1       2.770  -1.623  -0.858  1.00  0.00    -0.235 NA
ATOM     17  C   UNL     1       4.027   0.271  -0.138  1.00  0.00     0.045 A 
ATOM     18  C   UNL     1       3.943  -2.198  -1.179  1.00  0.00     0.224 A 
ATOM     19  C   UNL     1       5.149  -0.454  -0.519  1.00  0.00     0.141 A 
ATOM     20  C   UNL     1       4.513   1.503   0.392  1.00  0.00     0.032 A 
ATOM     21  N   UNL     1       5.178  -1.686  -1.049  1.00  0.00    -0.219 NA
ATOM     22  N   UNL     1       6.261   0.299  -0.260  1.00  0.00    -0.346 N 
ATOM     23  C   UNL     1       5.889   1.494   0.298  1.00  0.00     0.085 A 
ATOM     24  H   UNL     1       7.204  -0.009  -0.450  1.00  0.00     0.167 HD
ENDBRANCH  13  15
ENDBRANCH   1  10
TORSDOF 5
