REMARK SMILES Nc1ccc(/N=N/c2ccccc2)c(N)n1
REMARK SMILES IDX 2 1 3 2 4 3 5 4 14 5 16 6 1 7 15 10 6 13 7 14 8 15 9 16
REMARK SMILES IDX 13 17 10 18 12 19 11 20
REMARK H PARENT 1 8 1 9 15 11 15 12
REMARK Flexibility Score: inf
ROOT
ATOM      1  C   UNL     1      -4.012   0.459   0.178  1.00  0.00     0.125 A 
ATOM      2  C   UNL     1      -3.384   1.219  -0.797  1.00  0.00     0.049 A 
ATOM      3  C   UNL     1      -2.036   0.993  -1.057  1.00  0.00     0.038 A 
ATOM      4  C   UNL     1      -1.351   0.018  -0.334  1.00  0.00     0.128 A 
ATOM      5  C   UNL     1      -2.075  -0.713   0.628  1.00  0.00     0.153 A 
ATOM      6  N   UNL     1      -3.384  -0.499   0.878  1.00  0.00    -0.212 NA
ENDROOT
BRANCH   1   7
ATOM      7  N   UNL     1      -5.366   0.640   0.450  1.00  0.00    -0.384 N 
ATOM      8  H   UNL     1      -5.572   1.602   0.694  1.00  0.00     0.158 HD
ATOM      9  H   UNL     1      -5.591   0.004   1.214  1.00  0.00     0.158 HD
ENDBRANCH   1   7
BRANCH   5  10
ATOM     10  N   UNL     1      -1.445  -1.737   1.371  1.00  0.00    -0.382 N 
ATOM     11  H   UNL     1      -1.098  -2.429   0.712  1.00  0.00     0.158 HD
ATOM     12  H   UNL     1      -0.624  -1.328   1.813  1.00  0.00     0.158 HD
ENDBRANCH   5  10
BRANCH   4  13
ATOM     13  N   UNL     1       0.006  -0.237  -0.616  1.00  0.00    -0.147 NA
ATOM     14  N   UNL     1       0.730   0.256   0.278  1.00  0.00    -0.150 NA
BRANCH  14  15
ATOM     15  C   UNL     1       2.094   0.043   0.001  1.00  0.00     0.086 A 
ATOM     16  C   UNL     1       2.624  -1.236  -0.225  1.00  0.00     0.030 A 
ATOM     17  C   UNL     1       2.963   1.140   0.006  1.00  0.00     0.030 A 
ATOM     18  C   UNL     1       3.989  -1.409  -0.463  1.00  0.00     0.002 A 
ATOM     19  C   UNL     1       4.329   0.969  -0.232  1.00  0.00     0.002 A 
ATOM     20  C   UNL     1       4.840  -0.306  -0.469  1.00  0.00     0.000 A 
ENDBRANCH  14  15
ENDBRANCH   4  13
TORSDOF 4
