REMARK SMILES C[C@H](N)[C@H](O)c1ccc(O)c(O)c1
REMARK SMILES IDX 4 1 2 2 1 3 3 4 5 7 6 9 7 10 13 11 8 12 11 13 9 14 12 15
REMARK SMILES IDX 10 17
REMARK H PARENT 3 5 3 6 5 8 12 16 10 18
REMARK Flexibility Score: inf
ROOT
ATOM      1  C   UNL     1      -1.231   0.152  -1.327  1.00  0.00     0.161 C 
ENDROOT
BRANCH   1   2
ATOM      2  C   UNL     1      -2.344   0.028  -0.239  1.00  0.00     0.081 C 
ATOM      3  C   UNL     1      -2.180   0.988   0.935  1.00  0.00     0.027 C 
BRANCH   2   4
ATOM      4  N   UNL     1      -2.475  -1.369   0.235  1.00  0.00    -0.325 NA
ATOM      5  H   UNL     1      -3.237  -1.415   0.914  1.00  0.00     0.119 HD
ATOM      6  H   UNL     1      -1.633  -1.608   0.765  1.00  0.00     0.119 HD
ENDBRANCH   2   4
ENDBRANCH   1   2
BRANCH   1   7
ATOM      7  O   UNL     1      -1.462  -0.863  -2.317  1.00  0.00    -0.387 OA
ATOM      8  H   UNL     1      -1.987  -1.543  -1.846  1.00  0.00     0.211 HD
ENDBRANCH   1   7
BRANCH   1   9
ATOM      9  C   UNL     1       0.196   0.043  -0.825  1.00  0.00    -0.014 A 
ATOM     10  C   UNL     1       0.843  -1.201  -0.691  1.00  0.00     0.010 A 
ATOM     11  C   UNL     1       0.898   1.206  -0.467  1.00  0.00     0.056 A 
ATOM     12  C   UNL     1       2.155  -1.288  -0.212  1.00  0.00     0.050 A 
ATOM     13  C   UNL     1       2.197   1.111   0.013  1.00  0.00     0.157 A 
ATOM     14  C   UNL     1       2.824  -0.124   0.140  1.00  0.00     0.157 A 
BRANCH  13  15
ATOM     15  O   UNL     1       2.861   2.252   0.364  1.00  0.00    -0.504 OA
ATOM     16  H   UNL     1       3.742   1.941   0.651  1.00  0.00     0.293 HD
ENDBRANCH  13  15
BRANCH  14  17
ATOM     17  O   UNL     1       4.106  -0.142   0.615  1.00  0.00    -0.504 OA
ATOM     18  H   UNL     1       4.417  -1.063   0.605  1.00  0.00     0.293 HD
ENDBRANCH  14  17
ENDBRANCH   1   9
TORSDOF 6
