REMARK SMILES COc1ccc([C@@H](O)c2cc(-c3ncnc4cc(N5CCOCC5)ccc34)c(F)cc2Cl)nn1
REMARK SMILES IDX 9 1 31 2 32 3 30 4 28 5 29 6 11 7 10 8 7 9 6 10 3 11 34 12
REMARK SMILES IDX 4 13 33 14 5 15 2 16 1 17 8 18 12 20 13 21 27 22 14 23 16 24
REMARK SMILES IDX 26 25 15 26 17 27 25 28 18 29 19 30 20 31 24 32 21 33 23 34
REMARK SMILES IDX 22 35
REMARK H PARENT 8 19
REMARK Flexibility Score: inf
ROOT
ATOM      1  C   UNL     1       3.417  -0.978  -2.149  1.00  0.00     0.006 A 
ATOM      2  C   UNL     1       3.847  -0.011  -3.073  1.00  0.00     0.050 A 
ATOM      3  Cl  UNL     1       5.504   0.454  -3.219  1.00  0.00    -0.084 Cl
ATOM      4  C   UNL     1       2.933   0.626  -3.915  1.00  0.00     0.060 A 
ATOM      5  C   UNL     1       1.580   0.310  -3.839  1.00  0.00     0.134 A 
ATOM      6  F   UNL     1       0.729   0.960  -4.647  1.00  0.00    -0.206 F 
ATOM      7  C   UNL     1       1.104  -0.639  -2.933  1.00  0.00     0.037 A 
ATOM      8  C   UNL     1       2.036  -1.275  -2.096  1.00  0.00     0.021 A 
ENDROOT
BRANCH   1   9
ATOM      9  C   UNL     1       4.364  -1.669  -1.183  1.00  0.00     0.197 C 
BRANCH   9  10
ATOM     10  C   UNL     1       4.366  -1.028   0.194  1.00  0.00     0.096 A 
ATOM     11  C   UNL     1       4.251   0.042   2.687  1.00  0.00     0.233 A 
ATOM     12  N   UNL     1       3.437  -0.984   2.364  1.00  0.00    -0.112 NA
ATOM     13  C   UNL     1       5.153   0.574   1.788  1.00  0.00     0.072 A 
ATOM     14  N   UNL     1       3.494  -1.523   1.108  1.00  0.00    -0.149 NA
ATOM     15  C   UNL     1       5.213   0.027   0.511  1.00  0.00     0.034 A 
BRANCH  11  16
ATOM     16  O   UNL     1       4.213   0.610   3.944  1.00  0.00    -0.480 OA
ATOM     17  C   UNL     1       3.264  -0.012   4.805  1.00  0.00     0.280 C 
ENDBRANCH  11  16
ENDBRANCH   9  10
BRANCH   9  18
ATOM     18  O   UNL     1       3.994  -3.056  -1.097  1.00  0.00    -0.382 OA
ATOM     19  H   UNL     1       3.793  -3.232  -0.158  1.00  0.00     0.212 HD
ENDBRANCH   9  18
ENDBRANCH   1   9
BRANCH   7  20
ATOM     20  C   UNL     1      -0.322  -0.967  -2.859  1.00  0.00     0.084 A 
ATOM     21  N   UNL     1      -0.718  -1.876  -3.776  1.00  0.00    -0.236 NA
ATOM     22  C   UNL     1      -1.190  -0.410  -1.905  1.00  0.00     0.027 A 
ATOM     23  C   UNL     1      -2.008  -2.216  -3.739  1.00  0.00     0.223 A 
ATOM     24  C   UNL     1      -2.510  -0.859  -1.970  1.00  0.00     0.076 A 
ATOM     25  C   UNL     1      -0.834   0.536  -0.919  1.00  0.00     0.015 A 
ATOM     26  N   UNL     1      -2.923  -1.754  -2.877  1.00  0.00    -0.236 NA
ATOM     27  C   UNL     1      -3.432  -0.359  -1.052  1.00  0.00     0.055 A 
ATOM     28  C   UNL     1      -1.785   1.013  -0.014  1.00  0.00     0.027 A 
ATOM     29  C   UNL     1      -3.112   0.574  -0.048  1.00  0.00     0.039 A 
BRANCH  29  30
ATOM     30  N   UNL     1      -4.056   1.043   0.849  1.00  0.00    -0.367 N 
ATOM     31  C   UNL     1      -5.501   0.852   0.639  1.00  0.00     0.145 C 
ATOM     32  C   UNL     1      -3.673   1.582   2.167  1.00  0.00     0.145 C 
ATOM     33  C   UNL     1      -6.293   1.865   1.483  1.00  0.00     0.181 C 
ATOM     34  C   UNL     1      -4.752   1.249   3.211  1.00  0.00     0.181 C 
ATOM     35  O   UNL     1      -6.051   1.767   2.894  1.00  0.00    -0.378 OA
ENDBRANCH  29  30
ENDBRANCH   7  20
TORSDOF 6
