REMARK SMILES Cc1cnc(C(=O)O)c[n+]1[O-]
REMARK SMILES IDX 6 1 7 2 5 3 1 4 2 5 3 6 10 7 4 8 9 9 11 10 8 11
REMARK H PARENT 8 12
REMARK Flexibility Score: inf
ROOT
ATOM      1  C   UNL     1       2.787  -0.376  -0.383  1.00  0.00     0.360 C 
ATOM      2  O   UNL     1       3.388  -1.147  -1.107  1.00  0.00    -0.244 OA
ENDROOT
BRANCH   1   3
ATOM      3  C   UNL     1       1.308  -0.242  -0.241  1.00  0.00     0.213 A 
ATOM      4  C   UNL     1      -2.885   0.053   0.084  1.00  0.00     0.127 C 
ATOM      5  C   UNL     1      -1.405  -0.064  -0.043  1.00  0.00     0.208 A 
ATOM      6  C   UNL     1      -0.782  -0.965  -0.888  1.00  0.00     0.187 A 
ATOM      7  N   UNL     1      -0.607   0.770   0.724  1.00  0.00    -0.173 N 
ATOM      8  N   UNL     1       0.554  -1.070  -1.002  1.00  0.00    -0.237 NA
ATOM      9  C   UNL     1       0.760   0.680   0.624  1.00  0.00     0.357 A 
ATOM     10  O   UNL     1      -1.118   1.621   1.521  1.00  0.00    -0.618 OA
ENDBRANCH   1   3
BRANCH   1  11
ATOM     11  O   UNL     1       3.461   0.485   0.409  1.00  0.00    -0.476 OA
ATOM     12  H   UNL     1       4.403   0.287   0.214  1.00  0.00     0.297 HD
ENDBRANCH   1  11
TORSDOF 2
