REMARK SMILES CCCCc1ncc(/C=C(\Cc2cccs2)C(=O)O)n1Cc1ccc(C(=O)O)cc1
REMARK SMILES IDX 5 1 6 2 7 3 8 4 20 5 4 6 3 7 2 8 1 9 21 10 22 11 23 12 30 13
REMARK SMILES IDX 24 14 29 15 25 16 26 17 27 18 28 19 9 21 10 22 11 23 12 24
REMARK SMILES IDX 13 25 16 26 14 27 15 28 17 29 18 30 19 31
REMARK H PARENT 28 20 19 32
REMARK Flexibility Score: inf
ROOT
ATOM      1  C   UNL     1       0.800   2.011  -0.997  1.00  0.00     0.109 A 
ATOM      2  N   UNL     1       2.069   1.730  -1.216  1.00  0.00    -0.241 NA
ATOM      3  C   UNL     1       2.431   0.833  -0.251  1.00  0.00     0.139 A 
ATOM      4  C   UNL     1       1.374   0.552   0.586  1.00  0.00     0.061 A 
ATOM      5  N   UNL     1       0.325   1.305   0.093  1.00  0.00    -0.324 N 
ENDROOT
BRANCH   1   6
ATOM      6  C   UNL     1      -0.005   2.961  -1.826  1.00  0.00     0.075 C 
BRANCH   6   7
ATOM      7  C   UNL     1       0.011   4.370  -1.231  1.00  0.00     0.008 C 
BRANCH   7   8
ATOM      8  C   UNL     1      -0.823   5.336  -2.072  1.00  0.00    -0.003 C 
ATOM      9  C   UNL     1      -0.804   6.741  -1.490  1.00  0.00     0.004 C 
ENDBRANCH   7   8
ENDBRANCH   6   7
ENDBRANCH   1   6
BRANCH   5  10
ATOM     10  C   UNL     1      -1.033   1.357   0.628  1.00  0.00     0.159 C 
BRANCH  10  11
ATOM     11  C   UNL     1      -1.802   0.077   0.389  1.00  0.00    -0.028 A 
ATOM     12  C   UNL     1      -2.412  -0.585   1.467  1.00  0.00     0.006 A 
ATOM     13  C   UNL     1      -1.941  -0.463  -0.900  1.00  0.00     0.006 A 
ATOM     14  C   UNL     1      -3.122  -1.772   1.266  1.00  0.00     0.016 A 
ATOM     15  C   UNL     1      -2.651  -1.649  -1.102  1.00  0.00     0.016 A 
ATOM     16  C   UNL     1      -3.243  -2.310  -0.020  1.00  0.00     0.059 A 
BRANCH  16  17
ATOM     17  C   UNL     1      -3.987  -3.565  -0.283  1.00  0.00     0.335 C 
ATOM     18  O   UNL     1      -4.159  -4.076  -1.374  1.00  0.00    -0.246 OA
BRANCH  17  19
ATOM     19  O   UNL     1      -4.486  -4.121   0.835  1.00  0.00    -0.478 OA
ATOM     20  H   UNL     1      -4.931  -4.934   0.515  1.00  0.00     0.297 HD
ENDBRANCH  17  19
ENDBRANCH  16  17
ENDBRANCH  10  11
ENDBRANCH   5  10
BRANCH   4  21
ATOM     21  C   UNL     1       1.223  -0.276   1.722  1.00  0.00     0.039 C 
ATOM     22  C   UNL     1       1.173  -1.620   1.636  1.00  0.00     0.044 C 
BRANCH  22  23
ATOM     23  C   UNL     1       1.227  -2.438   0.364  1.00  0.00     0.090 C 
BRANCH  23  24
ATOM     24  C   UNL     1       2.519  -3.173   0.104  1.00  0.00     0.009 A 
ATOM     25  C   UNL     1       3.807  -2.851   0.490  1.00  0.00     0.016 A 
ATOM     26  S   UNL     1       2.492  -4.617  -0.824  1.00  0.00    -0.149 S 
ATOM     27  C   UNL     1       4.767  -3.798   0.030  1.00  0.00     0.012 A 
ATOM     28  C   UNL     1       4.184  -4.812  -0.695  1.00  0.00     0.065 A 
ENDBRANCH  23  24
ENDBRANCH  22  23
BRANCH  22  29
ATOM     29  C   UNL     1       0.972  -2.425   2.866  1.00  0.00     0.332 C 
ATOM     30  O   UNL     1       0.740  -3.620   2.907  1.00  0.00    -0.247 OA
BRANCH  29  31
ATOM     31  O   UNL     1       1.069  -1.716   4.004  1.00  0.00    -0.478 OA
ATOM     32  H   UNL     1       0.943  -2.394   4.700  1.00  0.00     0.297 HD
ENDBRANCH  29  31
ENDBRANCH  22  29
ENDBRANCH   4  21
TORSDOF 12
