REMARK SMILES CC(C)NCC(O)c1ccc(NS(C)(=O)=O)cc1
REMARK SMILES IDX 6 1 5 2 4 3 2 5 1 6 3 7 7 8 8 10 9 11 18 12 10 13 17 14
REMARK SMILES IDX 11 15 12 16 13 18 14 19 15 20 16 21
REMARK H PARENT 4 4 7 9 12 17
REMARK Flexibility Score: inf
ROOT
ATOM      1  C   UNL     1      -1.259  -0.944   0.314  1.00  0.00     0.158 C 
ENDROOT
BRANCH   1   2
ATOM      2  C   UNL     1      -1.815   0.137  -0.645  1.00  0.00     0.117 C 
BRANCH   2   3
ATOM      3  N   UNL     1      -3.282   0.053  -0.813  1.00  0.00    -0.312 NA
ATOM      4  H   UNL     1      -3.546   0.632  -1.613  1.00  0.00     0.123 HD
BRANCH   3   5
ATOM      5  C   UNL     1      -4.057   0.481   0.360  1.00  0.00     0.047 C 
ATOM      6  C   UNL     1      -5.516   0.085   0.116  1.00  0.00     0.024 C 
ATOM      7  C   UNL     1      -3.967   1.988   0.610  1.00  0.00     0.024 C 
ENDBRANCH   3   5
ENDBRANCH   2   3
ENDBRANCH   1   2
BRANCH   1   8
ATOM      8  O   UNL     1      -1.797  -2.217  -0.062  1.00  0.00    -0.387 OA
ATOM      9  H   UNL     1      -2.692  -2.005  -0.399  1.00  0.00     0.211 HD
ENDBRANCH   1   8
BRANCH   1  10
ATOM     10  C   UNL     1       0.254  -0.985   0.294  1.00  0.00    -0.018 A 
ATOM     11  C   UNL     1       0.951  -1.753  -0.652  1.00  0.00     0.008 A 
ATOM     12  C   UNL     1       0.988  -0.206   1.202  1.00  0.00     0.008 A 
ATOM     13  C   UNL     1       2.347  -1.750  -0.685  1.00  0.00     0.027 A 
ATOM     14  C   UNL     1       2.385  -0.204   1.171  1.00  0.00     0.027 A 
ATOM     15  C   UNL     1       3.061  -0.984   0.235  1.00  0.00     0.048 A 
BRANCH  15  16
ATOM     16  N   UNL     1       4.485  -0.952   0.169  1.00  0.00    -0.284 N 
ATOM     17  H   UNL     1       4.913  -1.809  -0.187  1.00  0.00     0.180 HD
BRANCH  16  18
ATOM     18  S   UNL     1       5.190   0.370  -0.623  1.00  0.00     0.229 S 
ATOM     19  C   UNL     1       5.877   1.256   0.757  1.00  0.00     0.183 C 
ATOM     20  O   UNL     1       4.180   1.193  -1.248  1.00  0.00    -0.207 OA
ATOM     21  O   UNL     1       6.295  -0.180  -1.380  1.00  0.00    -0.207 OA
ENDBRANCH  16  18
ENDBRANCH  15  16
ENDBRANCH   1  10
TORSDOF 7
