REMARK SMILES Cc1cc(C(C)(C)C)cc(C)c1CC1=NCCN1
REMARK SMILES IDX 1 1 2 2 3 3 4 4 9 5 10 6 11 7 12 8 13 9 14 10 15 11 18 12
REMARK SMILES IDX 16 13 17 14 5 16 6 17 7 18 8 19
REMARK H PARENT 18 15
REMARK Flexibility Score: inf
ROOT
ATOM      1  C   UNL     1       1.112   0.270  -2.566  1.00  0.00     0.044 C 
ATOM      2  C   UNL     1       0.256  -0.023  -1.361  1.00  0.00    -0.047 A 
ATOM      3  C   UNL     1      -0.971   0.665  -1.242  1.00  0.00     0.008 A 
ATOM      4  C   UNL     1      -1.842   0.462  -0.163  1.00  0.00    -0.042 A 
ATOM      5  C   UNL     1      -1.446  -0.476   0.804  1.00  0.00     0.008 A 
ATOM      6  C   UNL     1      -0.233  -1.189   0.718  1.00  0.00    -0.047 A 
ATOM      7  C   UNL     1       0.097  -2.141   1.838  1.00  0.00     0.044 C 
ATOM      8  C   UNL     1       0.640  -0.960  -0.370  1.00  0.00    -0.035 A 
ENDROOT
BRANCH   8   9
ATOM      9  C   UNL     1       1.962  -1.704  -0.466  1.00  0.00     0.110 C 
BRANCH   9  10
ATOM     10  C   UNL     1       3.034  -1.144   0.441  1.00  0.00     0.101 C 
ATOM     11  N   UNL     1       3.391  -1.756   1.543  1.00  0.00    -0.271 NA
ATOM     12  N   UNL     1       3.718   0.010   0.135  1.00  0.00    -0.372 N 
ATOM     13  C   UNL     1       4.461  -0.888   2.113  1.00  0.00     0.165 C 
ATOM     14  C   UNL     1       4.858   0.098   1.013  1.00  0.00     0.137 C 
ATOM     15  H   UNL     1       3.846   0.242  -0.843  1.00  0.00     0.161 HD
ENDBRANCH   9  10
ENDBRANCH   8   9
BRANCH   4  16
ATOM     16  C   UNL     1      -3.181   1.204  -0.018  1.00  0.00    -0.013 C 
ATOM     17  C   UNL     1      -3.239   1.930   1.346  1.00  0.00     0.016 C 
ATOM     18  C   UNL     1      -3.430   2.275  -1.106  1.00  0.00     0.016 C 
ATOM     19  C   UNL     1      -4.338   0.186  -0.102  1.00  0.00     0.016 C 
ENDBRANCH   4  16
TORSDOF 3
