REMARK SMILES Cc1ccccc1N1CCN(CCc2nnc3n2CCCC3)CC1
REMARK SMILES IDX 12 1 11 2 8 3 9 4 24 5 10 6 23 7 7 8 1 9 2 10 3 11 4 12 6 13
REMARK SMILES IDX 5 14 13 15 14 16 15 17 18 18 16 19 17 20 19 21 22 22 20 23
REMARK SMILES IDX 21 24
REMARK H PARENT
REMARK Flexibility Score: inf
ROOT
ATOM      1  C   UNL     1      -0.922   1.702   0.582  1.00  0.00     0.092 C 
ENDROOT
BRANCH   1   2
ATOM      2  N   UNL     1       0.436   1.536   1.135  1.00  0.00    -0.299 NA
ATOM      3  N   UNL     1       2.619  -0.132  -0.099  1.00  0.00    -0.369 N 
ATOM      4  C   UNL     1       2.212  -0.276   1.316  1.00  0.00     0.132 C 
ATOM      5  C   UNL     1       2.073   1.066  -0.779  1.00  0.00     0.132 C 
ATOM      6  C   UNL     1       0.727   0.119   1.472  1.00  0.00     0.106 C 
ATOM      7  C   UNL     1       1.463   2.081   0.214  1.00  0.00     0.106 C 
BRANCH   3   8
ATOM      8  C   UNL     1       4.002  -0.325  -0.279  1.00  0.00     0.040 A 
ATOM      9  C   UNL     1       3.491  -2.536  -1.407  1.00  0.00     0.046 C 
ATOM     10  C   UNL     1       4.461  -1.497  -0.914  1.00  0.00    -0.028 A 
ATOM     11  C   UNL     1       5.840  -1.703  -1.082  1.00  0.00     0.005 A 
ATOM     12  C   UNL     1       6.761  -0.757  -0.634  1.00  0.00     0.000 A 
ATOM     13  C   UNL     1       4.946   0.615   0.167  1.00  0.00     0.026 A 
ATOM     14  C   UNL     1       6.314   0.403  -0.010  1.00  0.00     0.002 A 
ENDBRANCH   3   8
ENDBRANCH   1   2
BRANCH   1  15
ATOM     15  C   UNL     1      -2.034   1.376   1.592  1.00  0.00     0.093 C 
BRANCH  15  16
ATOM     16  C   UNL     1      -3.376   1.507   0.959  1.00  0.00     0.134 A 
ATOM     17  N   UNL     1      -4.078   2.615   0.831  1.00  0.00    -0.135 NA
ATOM     18  N   UNL     1      -4.087   0.480   0.403  1.00  0.00    -0.315 N 
ATOM     19  N   UNL     1      -5.259   2.309   0.193  1.00  0.00    -0.135 NA
ATOM     20  C   UNL     1      -5.259   1.019  -0.054  1.00  0.00     0.132 A 
ATOM     21  C   UNL     1      -3.754  -0.925   0.340  1.00  0.00     0.125 C 
ATOM     22  C   UNL     1      -6.297   0.213  -0.746  1.00  0.00     0.077 C 
ATOM     23  C   UNL     1      -4.644  -1.691  -0.642  1.00  0.00     0.022 C 
ATOM     24  C   UNL     1      -6.111  -1.284  -0.483  1.00  0.00     0.010 C 
ENDBRANCH  15  16
ENDBRANCH   1  15
TORSDOF 4
