REMARK SMILES CN1CC[C@]23c4c5ccc(OCCN6CCOCC6)c4O[C@H]2[C@@H](O)C=C[C@H]3[C@H]1C5
REMARK SMILES IDX 12 1 11 2 10 3 1 4 2 5 3 6 28 7 4 8 27 9 29 10 5 11 26 12
REMARK SMILES IDX 7 13 6 14 22 15 25 16 8 17 20 18 21 19 23 20 9 21 24 22
REMARK SMILES IDX 13 24 14 25 15 26 19 27 16 28 18 29 17 30
REMARK H PARENT 24 23
REMARK Flexibility Score: inf
ROOT
ATOM      1  C   UNL     1       2.815   1.557  -0.221  1.00  0.00     0.245 C 
ENDROOT
BRANCH   1   2
ATOM      2  O   UNL     1       2.189   1.026  -1.388  1.00  0.00    -0.488 OA
BRANCH   2   3
ATOM      3  C   UNL     1       0.882   0.644  -1.331  1.00  0.00     0.161 A 
ATOM      4  C   UNL     1      -5.186  -2.391   0.356  1.00  0.00     0.105 C 
ATOM      5  N   UNL     1      -3.929  -1.645   0.333  1.00  0.00    -0.302 NA
ATOM      6  C   UNL     1      -3.343  -1.554   1.669  1.00  0.00     0.085 C 
ATOM      7  C   UNL     1      -4.072  -0.340  -0.371  1.00  0.00     0.068 C 
ATOM      8  C   UNL     1      -2.035  -0.745   1.703  1.00  0.00     0.032 C 
ATOM      9  C   UNL     1      -3.558   0.867   0.487  1.00  0.00     0.044 C 
ATOM     10  C   UNL     1      -3.304  -0.465  -1.725  1.00  0.00     0.055 C 
ATOM     11  C   UNL     1      -2.101   0.540   0.838  1.00  0.00     0.048 C 
ATOM     12  C   UNL     1      -3.723   2.226  -0.147  1.00  0.00    -0.022 C 
ATOM     13  C   UNL     1      -1.825  -0.208  -1.606  1.00  0.00    -0.039 A 
ATOM     14  C   UNL     1      -1.324   0.319  -0.426  1.00  0.00     0.012 A 
ATOM     15  C   UNL     1      -1.218   1.676   1.385  1.00  0.00     0.217 C 
ATOM     16  C   UNL     1      -2.871   3.232   0.105  1.00  0.00     0.004 C 
ATOM     17  C   UNL     1      -0.931  -0.352  -2.664  1.00  0.00     0.008 A 
ATOM     18  C   UNL     1      -0.027   0.795  -0.300  1.00  0.00     0.165 A 
ATOM     19  O   UNL     1       0.151   1.440   0.904  1.00  0.00    -0.482 OA
ATOM     20  C   UNL     1      -1.690   3.121   1.023  1.00  0.00     0.178 C 
ATOM     21  C   UNL     1       0.410   0.053  -2.516  1.00  0.00     0.051 A 
BRANCH  20  22
ATOM     22  O   UNL     1      -0.640   3.910   0.464  1.00  0.00    -0.385 OA
ATOM     23  H   UNL     1       0.192   3.520   0.787  1.00  0.00     0.211 HD
ENDBRANCH  20  22
ENDBRANCH   2   3
ENDBRANCH   1   2
BRANCH   1  24
ATOM     24  C   UNL     1       3.216   0.476   0.806  1.00  0.00     0.126 C 
BRANCH  24  25
ATOM     25  N   UNL     1       4.499  -0.195   0.500  1.00  0.00    -0.295 NA
ATOM     26  C   UNL     1       4.922  -1.045   1.637  1.00  0.00     0.113 C 
ATOM     27  C   UNL     1       4.400  -1.043  -0.710  1.00  0.00     0.113 C 
ATOM     28  C   UNL     1       6.223  -1.798   1.318  1.00  0.00     0.175 C 
ATOM     29  C   UNL     1       5.703  -1.822  -0.968  1.00  0.00     0.175 C 
ATOM     30  O   UNL     1       6.069  -2.627   0.160  1.00  0.00    -0.379 OA
ENDBRANCH  24  25
ENDBRANCH   1  24
TORSDOF 5
