REMARK SMILES COc1cc2ncnc(Nc3ccc(F)c(Cl)c3)c2cc1OCCCN1CCOCC1
REMARK SMILES IDX 23 1 22 2 21 3 3 4 4 5 5 6 20 7 6 8 19 9 7 10 9 11 8 12 2 13
REMARK SMILES IDX 1 14 10 15 11 17 12 18 18 19 13 20 16 21 14 22 17 23 15 24
REMARK SMILES IDX 24 25 25 26 26 27 27 28 31 29 28 30 30 31 29 32
REMARK H PARENT 10 16
REMARK Flexibility Score: inf
ROOT
ATOM      1  C   UNL     1      -2.504  -2.386  -0.603  1.00  0.00     0.231 C 
ENDROOT
BRANCH   1   2
ATOM      2  O   UNL     1      -1.211  -1.866  -0.926  1.00  0.00    -0.490 OA
BRANCH   2   3
ATOM      3  C   UNL     1      -0.191  -2.109  -0.044  1.00  0.00     0.162 A 
ATOM      4  C   UNL     1      -0.057  -3.177   0.850  1.00  0.00     0.162 A 
ATOM      5  C   UNL     1       1.080  -3.224   1.671  1.00  0.00     0.079 A 
ATOM      6  C   UNL     1       2.093  -2.272   1.608  1.00  0.00     0.080 A 
ATOM      7  C   UNL     1       0.829  -1.155  -0.127  1.00  0.00     0.064 A 
ATOM      8  N   UNL     1       3.140  -2.399   2.428  1.00  0.00    -0.236 NA
ATOM      9  C   UNL     1       1.985  -1.229   0.684  1.00  0.00     0.047 A 
ATOM     10  C   UNL     1       4.097  -1.471   2.331  1.00  0.00     0.224 A 
ATOM     11  C   UNL     1       3.067  -0.324   0.648  1.00  0.00     0.141 A 
ATOM     12  N   UNL     1       4.115  -0.440   1.482  1.00  0.00    -0.219 NA
BRANCH   4  13
ATOM     13  O   UNL     1      -1.029  -4.141   0.854  1.00  0.00    -0.493 OA
ATOM     14  C   UNL     1      -0.917  -5.206   1.790  1.00  0.00     0.278 C 
ENDBRANCH   4  13
BRANCH  11  15
ATOM     15  N   UNL     1       3.048   0.725  -0.312  1.00  0.00    -0.340 N 
ATOM     16  H   UNL     1       2.843   0.326  -1.223  1.00  0.00     0.168 HD
BRANCH  15  17
ATOM     17  C   UNL     1       3.888   1.857  -0.413  1.00  0.00     0.041 A 
ATOM     18  C   UNL     1       4.509   2.448   0.696  1.00  0.00     0.029 A 
ATOM     19  C   UNL     1       4.010   2.497  -1.657  1.00  0.00     0.049 A 
ATOM     20  C   UNL     1       5.273   3.610   0.564  1.00  0.00     0.043 A 
ATOM     21  C   UNL     1       4.774   3.659  -1.793  1.00  0.00     0.078 A 
ATOM     22  C   UNL     1       5.405   4.208  -0.682  1.00  0.00     0.141 A 
ATOM     23  Cl  UNL     1       4.927   4.394  -3.346  1.00  0.00    -0.081 Cl
ATOM     24  F   UNL     1       6.129   5.329  -0.791  1.00  0.00    -0.205 F 
ENDBRANCH  15  17
ENDBRANCH  11  15
ENDBRANCH   2   3
ENDBRANCH   1   2
BRANCH   1  25
ATOM     25  C   UNL     1      -3.564  -1.595  -1.374  1.00  0.00     0.057 C 
BRANCH  25  26
ATOM     26  C   UNL     1      -4.049  -0.333  -0.639  1.00  0.00     0.088 C 
BRANCH  26  27
ATOM     27  N   UNL     1      -2.999   0.630  -0.275  1.00  0.00    -0.299 NA
ATOM     28  C   UNL     1      -3.517   1.687   0.624  1.00  0.00     0.113 C 
ATOM     29  C   UNL     1      -2.369   1.289  -1.441  1.00  0.00     0.113 C 
ATOM     30  C   UNL     1      -4.393   2.735  -0.085  1.00  0.00     0.175 C 
ATOM     31  C   UNL     1      -3.252   2.352  -2.118  1.00  0.00     0.175 C 
ATOM     32  O   UNL     1      -3.695   3.344  -1.181  1.00  0.00    -0.379 OA
ENDBRANCH  26  27
ENDBRANCH  25  26
ENDBRANCH   1  25
TORSDOF 8
