REMARK SMILES C[C@H]1[C@H](NC(=O)/C(=N\OC(C)(C)C(=O)O)c2csc(N)n2)C(=O)N1S(=O)(=O)O
REMARK SMILES IDX 7 1 8 2 5 3 4 4 6 6 3 7 1 8 2 9 24 10 22 11 23 12 25 13
REMARK SMILES IDX 26 14 27 15 28 16 16 18 17 19 21 20 18 21 19 22 20 23 9 26
REMARK SMILES IDX 10 27 11 28 12 29 13 30 14 31 15 32
REMARK H PARENT 4 5 28 17 20 24 20 25 15 33
REMARK Flexibility Score: inf
ROOT
ATOM      1  C   UNL     1      -1.304   0.014   0.575  1.00  0.00     0.193 C 
ATOM      2  N   UNL     1      -2.545  -0.315   0.355  1.00  0.00    -0.077 NA
ENDROOT
BRANCH   1   3
ATOM      3  C   UNL     1      -0.101  -0.840   0.142  1.00  0.00     0.276 C 
ATOM      4  N   UNL     1       0.898  -0.134  -0.516  1.00  0.00    -0.337 N 
ATOM      5  H   UNL     1       0.794   0.879  -0.420  1.00  0.00     0.164 HD
ATOM      6  O   UNL     1      -0.017  -2.024   0.430  1.00  0.00    -0.267 OA
BRANCH   4   7
ATOM      7  C   UNL     1       2.285  -0.687  -0.519  1.00  0.00     0.196 C 
ATOM      8  C   UNL     1       4.221  -0.155  -2.180  1.00  0.00     0.035 C 
ATOM      9  C   UNL     1       3.364   0.312  -1.020  1.00  0.00     0.134 C 
ATOM     10  N   UNL     1       4.079   0.184   0.274  1.00  0.00    -0.209 N 
ATOM     11  C   UNL     1       3.049  -0.565   0.863  1.00  0.00     0.262 C 
ATOM     12  O   UNL     1       2.885  -0.853   2.024  1.00  0.00    -0.271 OA
BRANCH  10  13
ATOM     13  S   UNL     1       4.825   1.385   1.134  1.00  0.00     0.362 S 
ATOM     14  O   UNL     1       3.844   2.393   1.469  1.00  0.00    -0.176 OA
ATOM     15  O   UNL     1       5.713   0.811   2.115  1.00  0.00    -0.176 OA
BRANCH  13  16
ATOM     16  O   UNL     1       5.808   2.038   0.042  1.00  0.00    -0.269 OA
ATOM     17  H   UNL     1       6.721   1.924   0.384  1.00  0.00     0.236 HD
ENDBRANCH  13  16
ENDBRANCH  10  13
ENDBRANCH   4   7
ENDBRANCH   1   3
BRANCH   1  18
ATOM     18  C   UNL     1      -1.048   1.285   1.252  1.00  0.00     0.111 A 
ATOM     19  C   UNL     1      -1.973   2.023   1.966  1.00  0.00     0.099 A 
ATOM     20  N   UNL     1       0.215   1.874   1.173  1.00  0.00    -0.218 NA
ATOM     21  S   UNL     1      -1.238   3.440   2.590  1.00  0.00    -0.105 S 
ATOM     22  C   UNL     1       0.244   2.996   1.848  1.00  0.00     0.180 A 
BRANCH  22  23
ATOM     23  N   UNL     1       1.344   3.756   1.957  1.00  0.00    -0.375 N 
ATOM     24  H   UNL     1       1.404   4.361   2.767  1.00  0.00     0.159 HD
ATOM     25  H   UNL     1       2.235   3.277   1.784  1.00  0.00     0.159 HD
ENDBRANCH  22  23
ENDBRANCH   1  18
BRANCH   2  26
ATOM     26  O   UNL     1      -2.633  -1.519  -0.364  1.00  0.00    -0.377 OA
BRANCH  26  27
ATOM     27  C   UNL     1      -3.997  -1.925  -0.524  1.00  0.00     0.228 C 
ATOM     28  C   UNL     1      -3.967  -3.215  -1.351  1.00  0.00     0.072 C 
ATOM     29  C   UNL     1      -4.618  -2.223   0.847  1.00  0.00     0.072 C 
BRANCH  27  30
ATOM     30  C   UNL     1      -4.844  -0.901  -1.291  1.00  0.00     0.350 C 
ATOM     31  O   UNL     1      -5.992  -0.564  -1.038  1.00  0.00    -0.248 OA
BRANCH  30  32
ATOM     32  O   UNL     1      -4.226  -0.382  -2.377  1.00  0.00    -0.478 OA
ATOM     33  H   UNL     1      -4.885   0.247  -2.737  1.00  0.00     0.296 HD
ENDBRANCH  30  32
ENDBRANCH  27  30
ENDBRANCH  26  27
ENDBRANCH   2  26
TORSDOF 10
