REMARK SMILES CCc1nn(CCCN2CCN(c3cccc(Cl)c3)CC2)c(=O)n1CCOc1ccccc1
REMARK SMILES IDX 3 1 4 2 5 3 22 4 23 5 24 6 2 7 1 8 25 9 26 10 27 11 28 12
REMARK SMILES IDX 29 13 33 14 30 15 32 16 31 17 6 18 7 19 8 20 9 21 10 22
REMARK SMILES IDX 21 23 11 24 20 25 12 26 13 27 14 28 19 29 15 30 17 31 16 32
REMARK SMILES IDX 18 33
REMARK H PARENT
REMARK Flexibility Score: inf
ROOT
ATOM      1  C   UNL     1       3.177   1.822   0.388  1.00  0.00     0.133 C 
ATOM      2  N   UNL     1       2.052   2.475   0.313  1.00  0.00    -0.155 NA
ATOM      3  N   UNL     1       1.150   1.661   0.951  1.00  0.00    -0.213 N 
ATOM      4  C   UNL     1       1.767   0.474   1.346  1.00  0.00     0.346 C 
ATOM      5  O   UNL     1       1.239  -0.512   1.832  1.00  0.00    -0.246 OA
ATOM      6  N   UNL     1       3.092   0.632   1.017  1.00  0.00    -0.275 N 
ENDROOT
BRANCH   1   7
ATOM      7  C   UNL     1       4.483   2.316  -0.173  1.00  0.00     0.074 C 
ATOM      8  C   UNL     1       4.371   3.665  -0.862  1.00  0.00     0.012 C 
ENDBRANCH   1   7
BRANCH   6   9
ATOM      9  C   UNL     1       4.093  -0.404   1.188  1.00  0.00     0.170 C 
BRANCH   9  10
ATOM     10  C   UNL     1       4.002  -1.483   0.105  1.00  0.00     0.251 C 
BRANCH  10  11
ATOM     11  O   UNL     1       5.020  -2.472   0.279  1.00  0.00    -0.492 OA
BRANCH  11  12
ATOM     12  C   UNL     1       6.291  -2.178  -0.127  1.00  0.00     0.119 A 
ATOM     13  C   UNL     1       6.654  -1.199  -1.052  1.00  0.00     0.046 A 
ATOM     14  C   UNL     1       7.285  -2.974   0.448  1.00  0.00     0.046 A 
ATOM     15  C   UNL     1       8.001  -1.004  -1.377  1.00  0.00     0.004 A 
ATOM     16  C   UNL     1       8.629  -2.781   0.125  1.00  0.00     0.004 A 
ATOM     17  C   UNL     1       8.987  -1.792  -0.787  1.00  0.00     0.000 A 
ENDBRANCH  11  12
ENDBRANCH  10  11
ENDBRANCH   9  10
ENDBRANCH   6   9
BRANCH   3  18
ATOM     18  C   UNL     1      -0.271   1.911   0.930  1.00  0.00     0.151 C 
BRANCH  18  19
ATOM     19  C   UNL     1      -0.935   1.290  -0.298  1.00  0.00     0.039 C 
BRANCH  19  20
ATOM     20  C   UNL     1      -2.442   1.564  -0.297  1.00  0.00     0.086 C 
BRANCH  20  21
ATOM     21  N   UNL     1      -3.109   1.034  -1.497  1.00  0.00    -0.300 NA
ATOM     22  C   UNL     1      -3.221  -0.445  -1.502  1.00  0.00     0.106 C 
ATOM     23  C   UNL     1      -4.479   1.585  -1.635  1.00  0.00     0.106 C 
ATOM     24  C   UNL     1      -4.215  -1.042  -0.475  1.00  0.00     0.132 C 
ATOM     25  C   UNL     1      -5.517   1.057  -0.615  1.00  0.00     0.132 C 
ATOM     26  N   UNL     1      -5.552  -0.426  -0.611  1.00  0.00    -0.369 N 
BRANCH  26  27
ATOM     27  C   UNL     1      -6.618  -0.980   0.118  1.00  0.00     0.038 A 
ATOM     28  C   UNL     1      -6.442  -1.902   1.163  1.00  0.00     0.026 A 
ATOM     29  C   UNL     1      -7.941  -0.641  -0.213  1.00  0.00     0.046 A 
ATOM     30  C   UNL     1      -7.529  -2.435   1.867  1.00  0.00     0.004 A 
ATOM     31  C   UNL     1      -9.028  -1.173   0.486  1.00  0.00     0.043 A 
ATOM     32  C   UNL     1      -8.827  -2.066   1.531  1.00  0.00     0.020 A 
ATOM     33  Cl  UNL     1     -10.631  -0.720   0.047  1.00  0.00    -0.084 Cl
ENDBRANCH  26  27
ENDBRANCH  20  21
ENDBRANCH  19  20
ENDBRANCH  18  19
ENDBRANCH   3  18
TORSDOF 10
