REMARK SMILES Cn1cc(-c2cn3nccc3c(-c3cnn([C@]4(CC#N)C[C@@H](C#N)C4)c3)n2)cn1
REMARK SMILES IDX 17 1 21 2 22 3 25 4 16 5 13 6 26 7 14 8 15 9 12 10 5 11 6 12
REMARK SMILES IDX 27 13 7 14 8 15 11 16 9 17 10 18 4 19 1 20 2 21 3 22 29 23
REMARK SMILES IDX 28 24 18 25 19 26 20 27 23 28 24 29
REMARK H PARENT
REMARK Flexibility Score: inf
ROOT
ATOM      1  C   UNL     1      -3.999  -0.073   0.192  1.00  0.00     0.078 C 
ATOM      2  C   UNL     1      -4.300   0.811  -1.058  1.00  0.00     0.050 C 
ATOM      3  C   UNL     1      -5.470  -0.130  -1.433  1.00  0.00     0.097 C 
ATOM      4  C   UNL     1      -4.858  -1.189  -0.487  1.00  0.00     0.050 C 
ENDROOT
BRANCH   1   5
ATOM      5  N   UNL     1      -2.544  -0.405   0.263  1.00  0.00    -0.265 N 
ATOM      6  C   UNL     1      -0.358  -0.175   0.466  1.00  0.00     0.040 A 
ATOM      7  C   UNL     1      -1.551   0.525   0.425  1.00  0.00     0.119 A 
ATOM      8  C   UNL     1      -0.762  -1.521   0.286  1.00  0.00     0.145 A 
ATOM      9  N   UNL     1      -2.085  -1.659   0.181  1.00  0.00    -0.180 NA
BRANCH   6  10
ATOM     10  C   UNL     1       0.998   0.317   0.594  1.00  0.00     0.100 C 
ATOM     11  C   UNL     1       3.245   0.071   0.096  1.00  0.00     0.092 C 
ATOM     12  C   UNL     1       3.571   1.214   0.725  1.00  0.00     0.142 C 
ATOM     13  N   UNL     1       1.937  -0.385   0.028  1.00  0.00    -0.244 NA
ATOM     14  N   UNL     1       2.585   1.956   1.345  1.00  0.00    -0.237 N 
ATOM     15  N   UNL     1       2.719   3.114   2.034  1.00  0.00    -0.176 NA
ATOM     16  C   UNL     1       1.273   1.528   1.318  1.00  0.00     0.093 A 
ATOM     17  C   UNL     1       1.495   3.374   2.493  1.00  0.00     0.136 A 
ATOM     18  C   UNL     1       0.553   2.416   2.087  1.00  0.00     0.052 A 
BRANCH  11  19
ATOM     19  C   UNL     1       4.194  -0.772  -0.568  1.00  0.00     0.040 A 
ATOM     20  C   UNL     1       7.405  -1.937  -1.723  1.00  0.00     0.173 C 
ATOM     21  N   UNL     1       6.032  -1.664  -1.376  1.00  0.00    -0.275 N 
ATOM     22  C   UNL     1       5.563  -0.612  -0.641  1.00  0.00     0.118 A 
ATOM     23  N   UNL     1       5.067  -2.501  -1.792  1.00  0.00    -0.181 NA
ATOM     24  C   UNL     1       3.949  -1.959  -1.298  1.00  0.00     0.145 A 
ENDBRANCH  11  19
ENDBRANCH   6  10
ENDBRANCH   1   5
BRANCH   1  25
ATOM     25  C   UNL     1      -4.512   0.466   1.531  1.00  0.00     0.150 C 
BRANCH  25  26
ATOM     26  C   UNL     1      -4.341  -0.493   2.632  1.00  0.00     0.065 C 
ATOM     27  N   UNL     1      -4.207  -1.228   3.518  1.00  0.00    -0.198 NA
ENDBRANCH  25  26
ENDBRANCH   1  25
BRANCH   3  28
ATOM     28  C   UNL     1      -6.789   0.351  -1.073  1.00  0.00     0.066 C 
ATOM     29  N   UNL     1      -7.825   0.759  -0.751  1.00  0.00    -0.198 NA
ENDBRANCH   3  28
TORSDOF 6
