REMARK SMILES CN(C)c1ccc(C(=C2C=CC(=[N+](C)C)C=C2)c2ccc(N(C)C)cc2)cc1
REMARK SMILES IDX 8 1 9 2 10 3 11 4 12 5 13 6 14 7 15 8 16 9 17 10 7 11 4 12
REMARK SMILES IDX 5 13 28 14 6 15 27 16 2 17 1 18 3 19 18 20 19 21 26 22 20 23
REMARK SMILES IDX 25 24 21 25 22 26 23 27 24 28
REMARK H PARENT
REMARK Flexibility Score: inf
ROOT
ATOM      1  C   UNL     1      -0.055   0.119  -0.054  1.00  0.00    -0.004 C 
ATOM      2  C   UNL     1      -0.619   1.362  -0.135  1.00  0.00    -0.017 C 
ATOM      3  C   UNL     1      -2.055   1.572   0.065  1.00  0.00     0.015 C 
ATOM      4  C   UNL     1      -2.626   2.783  -0.003  1.00  0.00     0.079 C 
ATOM      5  C   UNL     1      -1.817   4.015  -0.286  1.00  0.00     0.199 C 
ATOM      6  N   UNL     1      -2.350   5.203  -0.336  1.00  0.00    -0.235 N 
ATOM      7  C   UNL     1      -1.535   6.448  -0.495  1.00  0.00     0.433 C 
ATOM      8  C   UNL     1      -3.828   5.424  -0.237  1.00  0.00     0.433 C 
ATOM      9  C   UNL     1      -0.352   3.782  -0.508  1.00  0.00     0.079 C 
ATOM     10  C   UNL     1       0.180   2.554  -0.434  1.00  0.00     0.015 C 
ENDROOT
BRANCH   1  11
ATOM     11  C   UNL     1       1.405  -0.067  -0.262  1.00  0.00    -0.017 A 
ATOM     12  C   UNL     1       4.213  -0.393  -0.666  1.00  0.00     0.036 A 
ATOM     13  C   UNL     1       3.672  -0.119   0.602  1.00  0.00     0.026 A 
ATOM     14  C   UNL     1       3.292  -0.485  -1.725  1.00  0.00     0.026 A 
ATOM     15  C   UNL     1       2.293   0.034   0.809  1.00  0.00     0.011 A 
ATOM     16  C   UNL     1       1.912  -0.333  -1.533  1.00  0.00     0.011 A 
BRANCH  12  17
ATOM     17  N   UNL     1       5.593  -0.521  -0.890  1.00  0.00    -0.378 N 
ATOM     18  C   UNL     1       6.007  -1.500  -1.902  1.00  0.00     0.143 C 
ATOM     19  C   UNL     1       6.508  -0.400   0.245  1.00  0.00     0.143 C 
ENDBRANCH  12  17
ENDBRANCH   1  11
BRANCH   1  20
ATOM     20  C   UNL     1      -0.887  -1.075   0.241  1.00  0.00    -0.017 A 
ATOM     21  C   UNL     1      -1.479  -1.801  -0.791  1.00  0.00     0.011 A 
ATOM     22  C   UNL     1      -1.101  -1.486   1.556  1.00  0.00     0.011 A 
ATOM     23  C   UNL     1      -2.281  -2.916  -0.505  1.00  0.00     0.026 A 
ATOM     24  C   UNL     1      -1.904  -2.603   1.828  1.00  0.00     0.026 A 
ATOM     25  C   UNL     1      -2.513  -3.361   0.810  1.00  0.00     0.036 A 
BRANCH  25  26
ATOM     26  N   UNL     1      -3.336  -4.459   1.090  1.00  0.00    -0.378 N 
ATOM     27  C   UNL     1      -3.278  -5.062   2.424  1.00  0.00     0.143 C 
ATOM     28  C   UNL     1      -3.656  -5.393   0.007  1.00  0.00     0.143 C 
ENDBRANCH  25  26
ENDBRANCH   1  20
TORSDOF 4
