REMARK SMILES CC(C)n1c(=O)cc(N[C@@H](C)c2ccccc2)[nH]c1=O
REMARK SMILES IDX 9 1 8 3 4 4 5 5 19 6 6 7 7 8 18 9 20 10 2 12 1 13 3 14 10 15
REMARK SMILES IDX 11 16 12 17 13 18 17 19 14 20 16 21 15 22
REMARK H PARENT 9 2 18 11
REMARK Flexibility Score: inf
ROOT
ATOM      1  N   UNL     1      -1.348  -1.472   0.855  1.00  0.00    -0.365 N 
ATOM      2  H   UNL     1      -1.377  -2.417   1.230  1.00  0.00     0.162 HD
ENDROOT
BRANCH   1   3
ATOM      3  C   UNL     1      -0.116  -1.136   0.323  1.00  0.00     0.113 C 
ATOM      4  N   UNL     1       2.361  -0.377  -0.725  1.00  0.00    -0.258 N 
ATOM      5  C   UNL     1       2.164  -1.700  -0.376  1.00  0.00     0.258 C 
ATOM      6  C   UNL     1       1.340   0.555  -0.644  1.00  0.00     0.330 C 
ATOM      7  O   UNL     1       2.991  -2.601  -0.504  1.00  0.00    -0.269 OA
ATOM      8  C   UNL     1       0.851  -2.052   0.195  1.00  0.00     0.116 C 
ATOM      9  N   UNL     1       0.162   0.122  -0.109  1.00  0.00    -0.293 N 
ATOM     10  O   UNL     1       1.433   1.724  -1.017  1.00  0.00    -0.248 OA
ATOM     11  H   UNL     1      -0.573   0.816  -0.100  1.00  0.00     0.173 HD
BRANCH   4  12
ATOM     12  C   UNL     1       3.646   0.052  -1.302  1.00  0.00     0.089 C 
ATOM     13  C   UNL     1       4.828  -0.195  -0.360  1.00  0.00     0.031 C 
ATOM     14  C   UNL     1       3.889  -0.566  -2.681  1.00  0.00     0.031 C 
ENDBRANCH   4  12
ENDBRANCH   1   3
BRANCH   1  15
ATOM     15  C   UNL     1      -2.337  -0.597   1.495  1.00  0.00     0.108 C 
ATOM     16  C   UNL     1      -1.745  -0.013   2.781  1.00  0.00     0.036 C 
BRANCH  15  17
ATOM     17  C   UNL     1      -2.943   0.390   0.508  1.00  0.00    -0.026 A 
ATOM     18  C   UNL     1      -2.999   1.773   0.744  1.00  0.00     0.006 A 
ATOM     19  C   UNL     1      -3.492  -0.096  -0.694  1.00  0.00     0.006 A 
ATOM     20  C   UNL     1      -3.568   2.639  -0.195  1.00  0.00     0.000 A 
ATOM     21  C   UNL     1      -4.061   0.769  -1.631  1.00  0.00     0.000 A 
ATOM     22  C   UNL     1      -4.098   2.137  -1.381  1.00  0.00     0.000 A 
ENDBRANCH  15  17
ENDBRANCH   1  15
TORSDOF 4
