REMARK SMILES C[C@H](Nc1ccc(C#N)n(C)c1=O)c1cc2cc(Cl)ccc2[nH]c1=O
REMARK SMILES IDX 3 1 2 3 1 4 14 5 15 6 24 7 16 8 23 9 25 10 17 11 22 12 18 14
REMARK SMILES IDX 21 15 19 16 20 17 4 18 5 19 12 20 6 21 10 22 13 23 7 24
REMARK SMILES IDX 11 25 8 26 9 27
REMARK H PARENT 3 2 23 13
REMARK Flexibility Score: inf
ROOT
ATOM      1  N   UNL     1       0.817  -0.616   0.228  1.00  0.00    -0.374 N 
ATOM      2  H   UNL     1       0.403   0.195   0.699  1.00  0.00     0.161 HD
ENDROOT
BRANCH   1   3
ATOM      3  C   UNL     1       0.040  -1.140  -0.897  1.00  0.00     0.112 C 
ATOM      4  C   UNL     1      -0.075  -2.662  -0.782  1.00  0.00     0.036 C 
BRANCH   3   5
ATOM      5  C   UNL     1      -1.349  -0.532  -0.916  1.00  0.00     0.040 C 
ATOM      6  C   UNL     1      -2.072  -0.185   0.168  1.00  0.00     0.022 C 
ATOM      7  C   UNL     1      -1.939  -0.342  -2.281  1.00  0.00     0.253 C 
ATOM      8  C   UNL     1      -3.406   0.402   0.038  1.00  0.00     0.000 A 
ATOM      9  N   UNL     1      -3.186   0.216  -2.357  1.00  0.00    -0.322 N 
ATOM     10  O   UNL     1      -1.338  -0.679  -3.297  1.00  0.00    -0.269 OA
ATOM     11  C   UNL     1      -4.153   0.774   1.158  1.00  0.00     0.030 A 
ATOM     12  C   UNL     1      -3.939   0.594  -1.242  1.00  0.00     0.048 A 
ATOM     13  H   UNL     1      -3.557   0.336  -3.290  1.00  0.00     0.170 HD
ATOM     14  C   UNL     1      -5.421   1.331   0.987  1.00  0.00     0.041 A 
ATOM     15  C   UNL     1      -5.206   1.151  -1.413  1.00  0.00     0.028 A 
ATOM     16  Cl  UNL     1      -6.344   1.789   2.365  1.00  0.00    -0.084 Cl
ATOM     17  C   UNL     1      -5.950   1.521  -0.291  1.00  0.00     0.023 A 
ENDBRANCH   3   5
ENDBRANCH   1   3
BRANCH   1  18
ATOM     18  C   UNL     1       2.204  -0.487   0.285  1.00  0.00     0.101 C 
ATOM     19  C   UNL     1       3.116  -1.159  -0.432  1.00  0.00     0.034 C 
ATOM     20  C   UNL     1       2.724   0.556   1.273  1.00  0.00     0.274 C 
ATOM     21  C   UNL     1       4.529  -0.938  -0.270  1.00  0.00     0.040 C 
ATOM     22  N   UNL     1       4.106   0.703   1.389  1.00  0.00    -0.301 N 
ATOM     23  O   UNL     1       1.901   1.221   1.906  1.00  0.00    -0.267 OA
ATOM     24  C   UNL     1       4.995  -0.042   0.614  1.00  0.00     0.122 C 
ATOM     25  C   UNL     1       4.615   1.688   2.338  1.00  0.00     0.154 C 
BRANCH  24  26
ATOM     26  C   UNL     1       6.411   0.138   0.742  1.00  0.00     0.118 C 
ATOM     27  N   UNL     1       7.557   0.289   0.851  1.00  0.00    -0.191 NA
ENDBRANCH  24  26
ENDBRANCH   1  18
TORSDOF 4
