REMARK SMILES CNC(=O)c1ccc(-c2cnc3ncc(Cc4ccc5ncccc5c4)n3n2)cc1F
REMARK SMILES IDX 9 1 28 2 27 3 15 4 14 5 13 6 12 7 11 8 10 9 8 10 5 11 30 12
REMARK SMILES IDX 6 13 31 14 29 15 7 16 3 17 1 18 2 19 4 21 16 22 17 23 26 24
REMARK SMILES IDX 18 25 25 26 19 27 20 28 24 29 21 30 23 31 22 32
REMARK H PARENT 2 20
REMARK Flexibility Score: inf
ROOT
ATOM      1  C   UNL     1       0.968  -1.335   1.580  1.00  0.00     0.110 C 
ATOM      2  N   UNL     1      -0.062  -0.630   1.953  1.00  0.00    -0.163 NA
ATOM      3  N   UNL     1      -0.926  -1.328   2.746  1.00  0.00    -0.200 N 
ATOM      4  C   UNL     1      -2.113  -0.860   3.250  1.00  0.00     0.069 A 
ATOM      5  C   UNL     1      -2.625  -1.914   3.975  1.00  0.00     0.139 A 
ATOM      6  N   UNL     1      -1.794  -3.002   3.928  1.00  0.00    -0.218 NA
ATOM      7  C   UNL     1      -0.773  -2.644   3.176  1.00  0.00     0.250 A 
ATOM      8  N   UNL     1       0.319  -3.375   2.829  1.00  0.00    -0.217 NA
ATOM      9  C   UNL     1       1.166  -2.760   2.068  1.00  0.00     0.146 C 
ENDROOT
BRANCH   1  10
ATOM     10  C   UNL     1       1.975  -0.730   0.670  1.00  0.00     0.006 A 
ATOM     11  C   UNL     1       3.835   0.495  -1.061  1.00  0.00     0.075 A 
ATOM     12  C   UNL     1       3.623  -0.885  -1.092  1.00  0.00     0.136 A 
ATOM     13  C   UNL     1       3.094   1.264  -0.151  1.00  0.00     0.017 A 
ATOM     14  F   UNL     1       4.299  -1.670  -1.945  1.00  0.00    -0.206 F 
ATOM     15  C   UNL     1       2.702  -1.501  -0.240  1.00  0.00     0.050 A 
ATOM     16  C   UNL     1       2.167   0.657   0.704  1.00  0.00     0.011 A 
BRANCH  11  17
ATOM     17  C   UNL     1       4.804   1.195  -1.951  1.00  0.00     0.253 C 
ATOM     18  C   UNL     1       6.489   1.017  -3.731  1.00  0.00     0.143 C 
ATOM     19  N   UNL     1       5.477   0.438  -2.884  1.00  0.00    -0.355 N 
ATOM     20  H   UNL     1       5.373  -0.570  -2.884  1.00  0.00     0.163 HD
ATOM     21  O   UNL     1       4.973   2.404  -1.828  1.00  0.00    -0.269 OA
ENDBRANCH  11  17
ENDBRANCH   1  10
BRANCH   4  22
ATOM     22  C   UNL     1      -2.633   0.508   2.998  1.00  0.00     0.093 C 
BRANCH  22  23
ATOM     23  C   UNL     1      -3.308   0.640   1.651  1.00  0.00    -0.041 A 
ATOM     24  C   UNL     1      -2.614   1.165   0.554  1.00  0.00     0.014 A 
ATOM     25  C   UNL     1      -4.626   0.213   1.466  1.00  0.00     0.006 A 
ATOM     26  C   UNL     1      -3.230   1.272  -0.706  1.00  0.00     0.000 A 
ATOM     27  C   UNL     1      -5.234   0.322   0.210  1.00  0.00     0.029 A 
ATOM     28  C   UNL     1      -4.562   0.845  -0.886  1.00  0.00     0.070 A 
ATOM     29  C   UNL     1      -2.552   1.796  -1.815  1.00  0.00     0.012 A 
ATOM     30  N   UNL     1      -5.191   0.929  -2.072  1.00  0.00    -0.256 NA
ATOM     31  C   UNL     1      -3.199   1.884  -3.042  1.00  0.00     0.021 A 
ATOM     32  C   UNL     1      -4.505   1.442  -3.118  1.00  0.00     0.112 A 
ENDBRANCH  22  23
ENDBRANCH   4  22
TORSDOF 4
