REMARK SMILES C[n+]1ccccc1C=NO
REMARK SMILES IDX 8 1 9 2 7 3 1 4 2 5 3 6 4 7 6 8 5 9 10 10
REMARK H PARENT 10 11
REMARK Flexibility Score: inf
ROOT
ATOM      1  C   UNL     1       1.656  -0.348   0.050  1.00  0.00     0.232 C 
ATOM      2  N   UNL     1       2.717   0.395   0.021  1.00  0.00    -0.091 NA
ENDROOT
BRANCH   1   3
ATOM      3  C   UNL     1       0.308   0.209  -0.187  1.00  0.00     0.226 A 
ATOM      4  C   UNL     1      -0.675  -2.046   0.127  1.00  0.00     0.440 C 
ATOM      5  N   UNL     1      -0.787  -0.601  -0.149  1.00  0.00    -0.200 N 
ATOM      6  C   UNL     1      -2.022  -0.083  -0.367  1.00  0.00     0.308 A 
ATOM      7  C   UNL     1      -2.202   1.269  -0.632  1.00  0.00     0.071 A 
ATOM      8  C   UNL     1       0.161   1.576  -0.451  1.00  0.00     0.081 A 
ATOM      9  C   UNL     1      -1.101   2.108  -0.675  1.00  0.00     0.013 A 
ENDBRANCH   1   3
BRANCH   2  10
ATOM     10  O   UNL     1       3.832  -0.409   0.280  1.00  0.00    -0.411 OA
ATOM     11  H   UNL     1       4.578   0.223   0.239  1.00  0.00     0.330 HD
ENDBRANCH   2  10
TORSDOF 2
