REMARK SMILES O=C1NC(=O)C(c2cnc3ccccn23)=C1c1cn2c3c(cc(F)cc13)CN(C(=O)N1CCCCC1)CC2
REMARK SMILES IDX 24 1 23 2 22 3 21 4 20 5 19 6 18 7 17 8 26 9 25 10 27 11
REMARK SMILES IDX 28 12 37 13 29 15 30 16 31 17 32 18 36 19 33 20 35 21 34 22
REMARK SMILES IDX 16 23 6 24 2 25 4 26 3 27 1 28 5 29 7 31 8 32 15 33 9 34
REMARK SMILES IDX 10 35 14 36 11 37 13 38 12 39 38 40
REMARK H PARENT 3 30
REMARK Flexibility Score: 90.00
ROOT
ATOM      1  F   UNL     1       0.759  -1.972   4.682  1.00  0.00    -0.207 F 
ATOM      2  C   UNL     1       0.659  -1.407   3.471  1.00  0.00     0.124 A 
ATOM      3  C   UNL     1      -0.245  -0.371   3.279  1.00  0.00     0.047 A 
ATOM      4  C   UNL     1      -0.376   0.254   2.029  1.00  0.00    -0.001 A 
ATOM      5  C   UNL     1       0.457  -0.230   1.001  1.00  0.00     0.054 A 
ATOM      6  N   UNL     1       0.541   0.178  -0.312  1.00  0.00    -0.345 N 
ATOM      7  C   UNL     1       1.485  -0.552  -0.979  1.00  0.00     0.095 A 
ATOM      8  C   UNL     1       2.023  -1.462  -0.090  1.00  0.00     0.014 A 
ATOM      9  C   UNL     1       1.369  -1.275   1.167  1.00  0.00     0.011 A 
ATOM     10  C   UNL     1       1.473  -1.871   2.439  1.00  0.00     0.050 A 
ENDROOT
BRANCH   4  11
ATOM     11  C   UNL     1      -1.356   1.380   1.815  1.00  0.00     0.159 C 
BRANCH  11  12
ATOM     12  N   UNL     1      -2.275   1.118   0.706  1.00  0.00    -0.318 N 
BRANCH  12  13
ATOM     13  C   UNL     1      -1.748   1.121  -0.672  1.00  0.00     0.143 CG0
ATOM     14  G   UNL     1      -0.234   1.270  -0.872  1.00  0.00     0.000 G0
ENDBRANCH  12  13
BRANCH  12  15
ATOM     15  C   UNL     1      -3.467   0.477   1.043  1.00  0.00     0.320 C 
ATOM     16  O   UNL     1      -3.674   0.057   2.183  1.00  0.00    -0.248 OA
ATOM     17  N   UNL     1      -4.413   0.316   0.035  1.00  0.00    -0.325 N 
ATOM     18  C   UNL     1      -4.767   1.428  -0.851  1.00  0.00     0.121 C 
ATOM     19  C   UNL     1      -5.488  -0.638   0.288  1.00  0.00     0.121 C 
ATOM     20  C   UNL     1      -6.277   1.574  -1.068  1.00  0.00     0.022 C 
ATOM     21  C   UNL     1      -6.704   0.046   0.912  1.00  0.00     0.022 C 
ATOM     22  C   UNL     1      -7.041   1.380   0.237  1.00  0.00     0.004 C 
ENDBRANCH  12  15
ENDBRANCH  11  12
ENDBRANCH   4  11
BRANCH   8  23
ATOM     23  C   UNL     1       3.067  -2.375  -0.409  1.00  0.00     0.064 C 
ATOM     24  C   UNL     1       4.223  -2.166  -1.060  1.00  0.00     0.079 C 
ATOM     25  C   UNL     1       3.031  -3.822  -0.076  1.00  0.00     0.259 C 
ATOM     26  C   UNL     1       4.915  -3.463  -1.197  1.00  0.00     0.261 C 
ATOM     27  N   UNL     1       4.168  -4.378  -0.549  1.00  0.00    -0.288 N 
ATOM     28  O   UNL     1       2.141  -4.418   0.501  1.00  0.00    -0.269 OA
ATOM     29  O   UNL     1       5.958  -3.666  -1.790  1.00  0.00    -0.269 OA
ATOM     30  H   UNL     1       4.382  -5.359  -0.498  1.00  0.00     0.173 HD
BRANCH  24  31
ATOM     31  C   UNL     1       4.693  -0.954  -1.604  1.00  0.00     0.079 A 
ATOM     32  C   UNL     1       5.028  -0.585  -2.893  1.00  0.00     0.141 A 
ATOM     33  N   UNL     1       4.949   0.171  -0.833  1.00  0.00    -0.299 N 
ATOM     34  N   UNL     1       5.387   0.734  -2.964  1.00  0.00    -0.236 NA
ATOM     35  C   UNL     1       5.338   1.174  -1.725  1.00  0.00     0.137 A 
ATOM     36  C   UNL     1       4.879   0.382   0.550  1.00  0.00     0.093 C 
ATOM     37  C   UNL     1       5.627   2.459  -1.184  1.00  0.00     0.048 C 
ATOM     38  C   UNL     1       5.164   1.596   1.052  1.00  0.00     0.018 C 
ATOM     39  C   UNL     1       5.542   2.664   0.144  1.00  0.00     0.005 C 
ENDBRANCH  24  31
ENDBRANCH   8  23
BRANCH   6  40
ATOM     40  C   UNL     1      -0.234   1.270  -0.872  1.00  0.00     0.143 CG0
ATOM     41  G   UNL     1      -1.748   1.121  -0.672  1.00  0.00     0.000 G0
ENDBRANCH   6  40
TORSDOF 3
