REMARK SMILES CC(C)(CO)c1cc2cc(NC(=O)C3(c4ccc5c(c4)OC(F)(F)O5)CC3)c(F)cc2n1C[C@@H](O)CO
REMARK SMILES IDX 6 1 7 2 8 3 9 4 10 5 28 6 29 7 30 8 31 9 32 10 2 11 1 12
REMARK SMILES IDX 3 13 4 14 5 15 33 17 34 18 35 19 36 21 37 22 11 24 12 25
REMARK SMILES IDX 13 27 14 28 26 29 27 30 15 31 16 32 20 33 17 34 19 35 18 36
REMARK SMILES IDX 21 37 25 38 22 39 23 40 24 41
REMARK H PARENT 5 16 35 20 37 23 11 26
REMARK Flexibility Score: inf
ROOT
ATOM      1  C   UNL     1      -3.288   1.244  -0.302  1.00  0.00     0.027 A 
ATOM      2  C   UNL     1      -1.994   1.743  -0.431  1.00  0.00     0.032 A 
ATOM      3  C   UNL     1      -1.082   0.883   0.220  1.00  0.00     0.002 A 
ATOM      4  C   UNL     1       0.316   0.930   0.426  1.00  0.00     0.039 A 
ATOM      5  C   UNL     1       0.946  -0.084   1.152  1.00  0.00     0.078 A 
ATOM      6  C   UNL     1       0.172  -1.130   1.657  1.00  0.00     0.148 A 
ATOM      7  F   UNL     1       0.773  -2.108   2.356  1.00  0.00    -0.205 F 
ATOM      8  C   UNL     1      -1.209  -1.201   1.470  1.00  0.00     0.068 A 
ATOM      9  C   UNL     1      -1.827  -0.174   0.736  1.00  0.00     0.051 A 
ATOM     10  N   UNL     1      -3.157   0.030   0.370  1.00  0.00    -0.341 N 
ENDROOT
BRANCH   1  11
ATOM     11  C   UNL     1      -4.593   1.925  -0.773  1.00  0.00     0.028 C 
ATOM     12  C   UNL     1      -4.258   3.219  -1.574  1.00  0.00     0.020 C 
ATOM     13  C   UNL     1      -5.418   2.387   0.446  1.00  0.00     0.020 C 
BRANCH  11  14
ATOM     14  C   UNL     1      -5.429   1.011  -1.704  1.00  0.00     0.168 C 
BRANCH  14  15
ATOM     15  O   UNL     1      -6.519   1.688  -2.328  1.00  0.00    -0.395 OA
ATOM     16  H   UNL     1      -7.169   1.905  -1.638  1.00  0.00     0.210 HD
ENDBRANCH  14  15
ENDBRANCH  11  14
ENDBRANCH   1  11
BRANCH  10  17
ATOM     17  C   UNL     1      -4.204  -0.934   0.707  1.00  0.00     0.156 C 
BRANCH  17  18
ATOM     18  C   UNL     1      -4.328  -2.073  -0.318  1.00  0.00     0.159 C 
BRANCH  18  19
ATOM     19  O   UNL     1      -3.200  -2.953  -0.267  1.00  0.00    -0.389 OA
ATOM     20  H   UNL     1      -2.453  -2.488  -0.691  1.00  0.00     0.211 HD
ENDBRANCH  18  19
BRANCH  18  21
ATOM     21  C   UNL     1      -5.577  -2.916  -0.044  1.00  0.00     0.189 C 
BRANCH  21  22
ATOM     22  O   UNL     1      -6.756  -2.126  -0.112  1.00  0.00    -0.394 OA
ATOM     23  H   UNL     1      -7.506  -2.729   0.025  1.00  0.00     0.210 HD
ENDBRANCH  21  22
ENDBRANCH  18  21
ENDBRANCH  17  18
ENDBRANCH  10  17
BRANCH   5  24
ATOM     24  N   UNL     1       2.330  -0.124   1.422  1.00  0.00    -0.323 N 
ATOM     25  C   UNL     1       3.282   0.810   1.078  1.00  0.00     0.235 C 
ATOM     26  H   UNL     1       2.644  -0.933   1.945  1.00  0.00     0.170 HD
ATOM     27  O   UNL     1       3.118   1.843   0.444  1.00  0.00    -0.274 OA
BRANCH  25  28
ATOM     28  C   UNL     1       4.669   0.457   1.570  1.00  0.00     0.075 C 
ATOM     29  C   UNL     1       5.351   1.490   2.468  1.00  0.00     0.023 C 
ATOM     30  C   UNL     1       4.876   0.204   3.062  1.00  0.00     0.023 C 
BRANCH  28  31
ATOM     31  C   UNL     1       5.557  -0.280   0.570  1.00  0.00    -0.028 A 
ATOM     32  C   UNL     1       5.693  -1.691   0.593  1.00  0.00     0.009 A 
ATOM     33  C   UNL     1       6.259   0.431  -0.422  1.00  0.00     0.055 A 
ATOM     34  C   UNL     1       6.503  -2.373  -0.324  1.00  0.00     0.051 A 
ATOM     35  C   UNL     1       7.050  -0.260  -1.315  1.00  0.00     0.173 A 
ATOM     36  C   UNL     1       7.169  -1.626  -1.267  1.00  0.00     0.172 A 
ATOM     37  O   UNL     1       7.784   0.292  -2.317  1.00  0.00    -0.395 OA
ATOM     38  O   UNL     1       7.993  -2.113  -2.233  1.00  0.00    -0.395 OA
ATOM     39  C   UNL     1       8.355  -0.892  -2.889  1.00  0.00     0.586 C 
ATOM     40  F   UNL     1       7.972  -0.976  -4.188  1.00  0.00    -0.125 F 
ATOM     41  F   UNL     1       9.705  -0.774  -2.869  1.00  0.00    -0.125 F 
ENDBRANCH  28  31
ENDBRANCH  25  28
ENDBRANCH   5  24
TORSDOF 11
