REMARK SMILES O=C1CN2Cc3c(ccc(Cl)c3Cl)N=C2N1
REMARK SMILES IDX 1 1 2 2 3 3 4 4 5 5 6 6 7 7 8 8 9 9 10 10 11 11 12 12 13 13
REMARK SMILES IDX 14 14 15 15 16 16
REMARK H PARENT 16 17
REMARK Flexibility Score: inf
ROOT
ATOM      1  O   UNL     1       4.672   0.309  -0.974  1.00  0.00    -0.273 OA
ATOM      2  C   UNL     1       3.478   0.164  -0.768  1.00  0.00     0.246 C 
ATOM      3  C   UNL     1       2.839  -0.721   0.311  1.00  0.00     0.220 C 
ATOM      4  N   UNL     1       1.426  -0.507   0.041  1.00  0.00    -0.329 N 
ATOM      5  C   UNL     1       0.410  -0.721   1.040  1.00  0.00     0.159 C 
ATOM      6  C   UNL     1      -0.938  -0.264   0.526  1.00  0.00     0.017 A 
ATOM      7  C   UNL     1      -0.984   0.585  -0.603  1.00  0.00     0.074 A 
ATOM      8  C   UNL     1      -2.215   1.038  -1.082  1.00  0.00     0.030 A 
ATOM      9  C   UNL     1      -3.402   0.667  -0.455  1.00  0.00     0.024 A 
ATOM     10  C   UNL     1      -3.367  -0.158   0.671  1.00  0.00     0.060 A 
ATOM     11  Cl  UNL     1      -4.881  -0.562   1.404  1.00  0.00    -0.083 Cl
ATOM     12  C   UNL     1      -2.139  -0.620   1.170  1.00  0.00     0.066 A 
ATOM     13  Cl  UNL     1      -2.086  -1.618   2.591  1.00  0.00    -0.082 Cl
ATOM     14  N   UNL     1       0.177   1.019  -1.273  1.00  0.00    -0.215 NA
ATOM     15  C   UNL     1       1.269   0.455  -0.905  1.00  0.00     0.206 C 
ATOM     16  N   UNL     1       2.459   0.793  -1.434  1.00  0.00    -0.295 N 
ATOM     17  H   UNL     1       2.584   1.488  -2.149  1.00  0.00     0.173 HD
ENDROOT
TORSDOF 0
