REMARK SMILES C[C@@H](Oc1nnc(-c2ccncc2)n1C)c1cc(-c2cccc(Cl)c2)on1
REMARK SMILES IDX 1 1 2 2 3 3 4 4 5 5 14 6 6 7 7 8 15 9 8 10 9 11 13 12 10 13
REMARK SMILES IDX 12 14 11 15 16 16 27 17 17 18 26 19 18 20 19 21 20 22 25 23
REMARK SMILES IDX 21 24 23 25 22 26 24 27
REMARK H PARENT
REMARK Flexibility Score: inf
ROOT
ATOM      1  C   UNL     1      -1.326   1.197   3.991  1.00  0.00     0.060 C 
ATOM      2  C   UNL     1      -0.959   1.111   2.508  1.00  0.00     0.226 C 
ENDROOT
BRANCH   2   3
ATOM      3  O   UNL     1       0.467   0.923   2.445  1.00  0.00    -0.454 OA
BRANCH   3   4
ATOM      4  C   UNL     1       1.024   1.252   1.282  1.00  0.00     0.317 A 
ATOM      5  N   UNL     1       0.455   1.871   0.275  1.00  0.00    -0.092 NA
ATOM      6  N   UNL     1       2.319   0.955   0.969  1.00  0.00    -0.280 N 
ATOM      7  N   UNL     1       1.395   1.985  -0.722  1.00  0.00    -0.127 NA
ATOM      8  C   UNL     1       2.530   1.462  -0.293  1.00  0.00     0.166 A 
ATOM      9  C   UNL     1       3.226   0.181   1.774  1.00  0.00     0.157 C 
BRANCH   8  10
ATOM     10  C   UNL     1       3.780   1.413  -1.045  1.00  0.00     0.022 A 
ATOM     11  C   UNL     1       4.970   1.912  -0.514  1.00  0.00     0.032 A 
ATOM     12  C   UNL     1       3.784   0.898  -2.343  1.00  0.00     0.032 A 
ATOM     13  C   UNL     1       6.114   1.856  -1.292  1.00  0.00     0.111 A 
ATOM     14  C   UNL     1       4.980   0.880  -3.040  1.00  0.00     0.111 A 
ATOM     15  N   UNL     1       6.146   1.340  -2.539  1.00  0.00    -0.265 NA
ENDBRANCH   8  10
ENDBRANCH   3   4
ENDBRANCH   2   3
BRANCH   2  16
ATOM     16  C   UNL     1      -1.707   0.013   1.803  1.00  0.00     0.124 A 
ATOM     17  N   UNL     1      -1.762  -1.231   2.299  1.00  0.00    -0.080 NA
ATOM     18  C   UNL     1      -2.400   0.099   0.573  1.00  0.00     0.082 A 
ATOM     19  O   UNL     1      -2.501  -1.964   1.388  1.00  0.00    -0.356 OA
ATOM     20  C   UNL     1      -2.881  -1.169   0.347  1.00  0.00     0.167 A 
BRANCH  20  21
ATOM     21  C   UNL     1      -3.658  -1.803  -0.715  1.00  0.00     0.022 A 
ATOM     22  C   UNL     1      -4.030  -3.157  -0.643  1.00  0.00     0.012 A 
ATOM     23  C   UNL     1      -4.053  -1.064  -1.841  1.00  0.00     0.032 A 
ATOM     24  C   UNL     1      -4.772  -3.756  -1.665  1.00  0.00     0.002 A 
ATOM     25  C   UNL     1      -4.793  -1.668  -2.859  1.00  0.00     0.041 A 
ATOM     26  C   UNL     1      -5.156  -3.010  -2.775  1.00  0.00     0.020 A 
ATOM     27  Cl  UNL     1      -5.260  -0.747  -4.235  1.00  0.00    -0.084 Cl
ENDBRANCH  20  21
ENDBRANCH   2  16
TORSDOF 5
