REMARK SMILES CC(=O)c1c(C)c2cnc(Nc3ccc(N4CCNCC4)cn3)nc2n(C2CCCC2)c1=O
REMARK SMILES IDX 11 1 10 3 4 4 5 5 32 6 6 7 7 8 26 9 33 10 8 11 25 12 9 13
REMARK SMILES IDX 24 14 2 15 1 16 3 17 27 18 28 19 31 20 29 21 30 22 12 23
REMARK SMILES IDX 13 24 23 25 14 26 22 27 15 28 16 29 17 30 21 31 18 32 20 33
REMARK SMILES IDX 19 34
REMARK H PARENT 11 2 19 35
REMARK Flexibility Score: inf
ROOT
ATOM      1  N   UNL     1       0.568   0.662   0.066  1.00  0.00    -0.309 N 
ATOM      2  H   UNL     1       0.337   1.212  -0.746  1.00  0.00     0.171 HD
ENDROOT
BRANCH   1   3
ATOM      3  C   UNL     1      -0.542   0.082   0.649  1.00  0.00     0.230 A 
ATOM      4  C   UNL     1      -5.234  -1.362   1.534  1.00  0.00     0.086 C 
ATOM      5  C   UNL     1      -4.075  -1.671   2.151  1.00  0.00    -0.022 C 
ATOM      6  C   UNL     1      -5.270  -0.463   0.342  1.00  0.00     0.263 C 
ATOM      7  C   UNL     1      -3.946  -2.631   3.309  1.00  0.00     0.046 C 
ATOM      8  C   UNL     1      -2.839  -1.046   1.644  1.00  0.00     0.040 A 
ATOM      9  N   UNL     1      -4.068   0.039  -0.139  1.00  0.00    -0.289 N 
ATOM     10  O   UNL     1      -6.359  -0.212  -0.174  1.00  0.00    -0.268 OA
ATOM     11  C   UNL     1      -1.593  -1.214   2.217  1.00  0.00     0.127 A 
ATOM     12  C   UNL     1      -2.838  -0.230   0.526  1.00  0.00     0.148 A 
ATOM     13  N   UNL     1      -0.451  -0.678   1.742  1.00  0.00    -0.221 NA
ATOM     14  N   UNL     1      -1.708   0.326   0.039  1.00  0.00    -0.194 NA
BRANCH   4  15
ATOM     15  C   UNL     1      -6.525  -1.932   2.032  1.00  0.00     0.165 C 
ATOM     16  C   UNL     1      -7.442  -2.596   1.036  1.00  0.00     0.094 C 
ATOM     17  O   UNL     1      -6.818  -1.877   3.227  1.00  0.00    -0.294 OA
ENDBRANCH   4  15
BRANCH   9  18
ATOM     18  C   UNL     1      -4.101   0.891  -1.334  1.00  0.00     0.092 C 
ATOM     19  C   UNL     1      -3.289   0.403  -2.539  1.00  0.00     0.025 C 
ATOM     20  C   UNL     1      -3.675   2.349  -1.137  1.00  0.00     0.025 C 
ATOM     21  C   UNL     1      -3.270   1.619  -3.454  1.00  0.00     0.002 C 
ATOM     22  C   UNL     1      -3.285   2.840  -2.533  1.00  0.00     0.002 C 
ENDBRANCH   9  18
ENDBRANCH   1   3
BRANCH   1  23
ATOM     23  C   UNL     1       1.928   0.616   0.299  1.00  0.00     0.132 A 
ATOM     24  C   UNL     1       2.528  -0.086   1.332  1.00  0.00     0.049 A 
ATOM     25  N   UNL     1       2.675   1.319  -0.574  1.00  0.00    -0.237 NA
ATOM     26  C   UNL     1       3.922  -0.074   1.466  1.00  0.00     0.031 A 
ATOM     27  C   UNL     1       4.027   1.314  -0.417  1.00  0.00     0.139 A 
ATOM     28  C   UNL     1       4.732   0.634   0.575  1.00  0.00     0.055 A 
BRANCH  28  29
ATOM     29  N   UNL     1       6.122   0.633   0.723  1.00  0.00    -0.368 N 
ATOM     30  C   UNL     1       6.721  -0.720   0.866  1.00  0.00     0.132 C 
ATOM     31  C   UNL     1       6.957   1.596  -0.023  1.00  0.00     0.132 C 
ATOM     32  C   UNL     1       8.229  -0.724   0.524  1.00  0.00     0.102 C 
ATOM     33  C   UNL     1       7.679   0.909  -1.204  1.00  0.00     0.102 C 
ATOM     34  N   UNL     1       8.539  -0.233  -0.833  1.00  0.00    -0.313 NA
ATOM     35  H   UNL     1       9.522   0.041  -0.871  1.00  0.00     0.122 HD
ENDBRANCH  28  29
ENDBRANCH   1  23
TORSDOF 5
