REMARK SMILES CCOC(=O)C1(c2ccccc2)CCN(C)CC1
REMARK SMILES IDX 4 1 5 2 3 3 2 4 1 5 6 6 13 7 18 8 14 9 17 10 15 11 16 12
REMARK SMILES IDX 7 13 8 14 12 15 9 16 11 17 10 18
REMARK H PARENT
REMARK Flexibility Score: inf
ROOT
ATOM      1  C   UNL     1      -0.556  -0.521  -0.912  1.00  0.00     0.316 C 
ATOM      2  O   UNL     1      -0.340  -0.873  -2.067  1.00  0.00    -0.251 OA
ENDROOT
BRANCH   1   3
ATOM      3  O   UNL     1      -1.713  -0.791  -0.238  1.00  0.00    -0.465 OA
BRANCH   3   4
ATOM      4  C   UNL     1      -2.685  -1.519  -0.996  1.00  0.00     0.229 C 
ATOM      5  C   UNL     1      -3.903  -1.733  -0.118  1.00  0.00     0.049 C 
ENDBRANCH   3   4
ENDBRANCH   1   3
BRANCH   1   6
ATOM      6  C   UNL     1       0.411   0.324  -0.051  1.00  0.00     0.095 C 
ATOM      7  C   UNL     1       0.525  -0.310   1.361  1.00  0.00     0.039 C 
ATOM      8  C   UNL     1       1.832   0.287  -0.679  1.00  0.00     0.039 C 
ATOM      9  C   UNL     1       1.173  -1.695   1.332  1.00  0.00     0.085 C 
ATOM     10  C   UNL     1       2.479  -1.100  -0.618  1.00  0.00     0.085 C 
ATOM     11  N   UNL     1       2.516  -1.614   0.755  1.00  0.00    -0.306 NA
ATOM     12  C   UNL     1       3.174  -2.920   0.794  1.00  0.00     0.105 C 
BRANCH   6  13
ATOM     13  C   UNL     1      -0.103   1.783  -0.045  1.00  0.00    -0.031 A 
ATOM     14  C   UNL     1      -0.477   2.456   1.130  1.00  0.00     0.005 A 
ATOM     15  C   UNL     1      -0.233   2.482  -1.263  1.00  0.00     0.005 A 
ATOM     16  C   UNL     1      -0.946   3.773   1.091  1.00  0.00     0.000 A 
ATOM     17  C   UNL     1      -0.702   3.797  -1.301  1.00  0.00     0.000 A 
ATOM     18  C   UNL     1      -1.058   4.444  -0.123  1.00  0.00     0.000 A 
ENDBRANCH   6  13
ENDBRANCH   1   6
TORSDOF 4
