REMARK SMILES O=C(O)c1ccccc1C(=O)Nc1ccc(S(=O)(=O)Nc2nccs2)cc1
REMARK SMILES IDX 13 1 14 2 15 3 16 4 26 5 27 6 12 7 10 8 11 9 9 11 4 12 5 13
REMARK SMILES IDX 6 14 8 15 7 16 2 17 1 18 3 19 17 21 18 22 19 23 20 24 21 26
REMARK SMILES IDX 22 27 25 28 23 29 24 30
REMARK H PARENT 12 10 3 20 20 25
REMARK Flexibility Score: inf
ROOT
ATOM      1  C   UNL     1      -0.429   0.323  -0.125  1.00  0.00     0.041 A 
ATOM      2  C   UNL     1       0.395  -0.793  -0.337  1.00  0.00     0.027 A 
ATOM      3  C   UNL     1       1.766  -0.641  -0.555  1.00  0.00     0.024 A 
ATOM      4  C   UNL     1       2.322   0.639  -0.555  1.00  0.00     0.088 A 
ATOM      5  C   UNL     1       1.516   1.761  -0.358  1.00  0.00     0.024 A 
ATOM      6  C   UNL     1       0.144   1.598  -0.139  1.00  0.00     0.027 A 
ENDROOT
BRANCH   1   7
ATOM      7  N   UNL     1      -1.801   0.070   0.090  1.00  0.00    -0.322 N 
ATOM      8  C   UNL     1      -2.809   0.994   0.268  1.00  0.00     0.256 C 
ATOM      9  O   UNL     1      -2.673   2.214   0.288  1.00  0.00    -0.269 OA
ATOM     10  H   UNL     1      -2.062  -0.914   0.058  1.00  0.00     0.170 HD
BRANCH   8  11
ATOM     11  C   UNL     1      -4.186   0.465   0.510  1.00  0.00     0.054 A 
ATOM     12  C   UNL     1      -4.786  -0.604  -0.170  1.00  0.00     0.072 A 
ATOM     13  C   UNL     1      -6.120  -0.957   0.103  1.00  0.00     0.016 A 
ATOM     14  C   UNL     1      -6.860  -0.249   1.049  1.00  0.00     0.001 A 
ATOM     15  C   UNL     1      -4.954   1.176   1.452  1.00  0.00     0.015 A 
ATOM     16  C   UNL     1      -6.277   0.818   1.724  1.00  0.00     0.001 A 
BRANCH  12  17
ATOM     17  C   UNL     1      -4.074  -1.415  -1.167  1.00  0.00     0.336 C 
ATOM     18  O   UNL     1      -3.019  -1.990  -0.979  1.00  0.00    -0.246 OA
BRANCH  17  19
ATOM     19  O   UNL     1      -4.740  -1.465  -2.330  1.00  0.00    -0.478 OA
ATOM     20  H   UNL     1      -4.180  -2.000  -2.931  1.00  0.00     0.297 HD
ENDBRANCH  17  19
ENDBRANCH  12  17
ENDBRANCH   8  11
ENDBRANCH   1   7
BRANCH   4  21
ATOM     21  S   UNL     1       4.066   0.828  -0.849  1.00  0.00     0.263 S 
ATOM     22  O   UNL     1       4.438  -0.172  -1.826  1.00  0.00    -0.201 OA
ATOM     23  O   UNL     1       4.327   2.236  -1.063  1.00  0.00    -0.201 OA
BRANCH  21  24
ATOM     24  N   UNL     1       4.667   0.453   0.685  1.00  0.00    -0.255 N 
ATOM     25  H   UNL     1       4.865   1.342   1.147  1.00  0.00     0.182 HD
BRANCH  24  26
ATOM     26  C   UNL     1       5.931  -0.253   0.607  1.00  0.00     0.196 A 
ATOM     27  N   UNL     1       7.028   0.401   0.894  1.00  0.00    -0.228 NA
ATOM     28  S   UNL     1       6.084  -1.935   0.354  1.00  0.00    -0.105 S 
ATOM     29  C   UNL     1       8.099  -0.469   0.821  1.00  0.00     0.125 A 
ATOM     30  C   UNL     1       7.784  -1.781   0.532  1.00  0.00     0.089 A 
ENDBRANCH  24  26
ENDBRANCH  21  24
ENDBRANCH   4  21
TORSDOF 7
