REMARK SMILES CCC/N=C1\S/C(=C\c2ccc(OC[C@H](O)CO)c(Cl)c2)C(=O)N1c1ccccc1C
REMARK SMILES IDX 13 1 12 2 9 3 10 4 21 5 11 6 19 7 20 8 8 9 4 10 5 11 6 12
REMARK SMILES IDX 24 13 7 14 22 15 23 16 3 17 2 18 1 19 25 20 26 21 30 22
REMARK SMILES IDX 27 23 29 24 31 25 28 26 14 27 15 28 16 29 17 31 18 32
REMARK H PARENT 16 30 18 33
REMARK Flexibility Score: inf
ROOT
ATOM      1  O   UNL     1       5.553  -0.593  -0.545  1.00  0.00    -0.489 OA
ENDROOT
BRANCH   1   2
ATOM      2  C   UNL     1       4.259  -0.920  -0.234  1.00  0.00     0.138 A 
ATOM      3  C   UNL     1       1.549  -1.570   0.208  1.00  0.00    -0.023 A 
ATOM      4  C   UNL     1       2.458  -1.546   1.270  1.00  0.00     0.012 A 
ATOM      5  C   UNL     1       2.002  -1.284  -1.082  1.00  0.00     0.032 A 
ATOM      6  C   UNL     1       3.803  -1.220   1.052  1.00  0.00     0.048 A 
ATOM      7  C   UNL     1       3.344  -0.958  -1.299  1.00  0.00     0.083 A 
ATOM      8  Cl  UNL     1       3.839  -0.602  -2.919  1.00  0.00    -0.080 Cl
BRANCH   3   9
ATOM      9  C   UNL     1       0.152  -1.933   0.469  1.00  0.00     0.029 C 
ATOM     10  N   UNL     1      -3.425   1.565  -0.524  1.00  0.00    -0.262 NA
ATOM     11  C   UNL     1      -2.705   0.557  -0.190  1.00  0.00     0.176 C 
ATOM     12  S   UNL     1      -0.958   0.466  -0.283  1.00  0.00    -0.046 SA
ATOM     13  N   UNL     1      -3.223  -0.643   0.267  1.00  0.00    -0.254 N 
ATOM     14  C   UNL     1      -0.920  -1.150   0.281  1.00  0.00     0.082 C 
ATOM     15  C   UNL     1      -2.295  -1.619   0.606  1.00  0.00     0.271 C 
ATOM     16  O   UNL     1      -2.493  -2.699   1.149  1.00  0.00    -0.268 OA
BRANCH  10  17
ATOM     17  C   UNL     1      -2.852   2.800  -1.048  1.00  0.00     0.145 C 
BRANCH  17  18
ATOM     18  C   UNL     1      -2.598   3.799   0.079  1.00  0.00     0.020 C 
ATOM     19  C   UNL     1      -3.883   4.294   0.726  1.00  0.00     0.006 C 
ENDBRANCH  17  18
ENDBRANCH  10  17
BRANCH  13  20
ATOM     20  C   UNL     1      -4.619  -0.843   0.509  1.00  0.00     0.054 A 
ATOM     21  C   UNL     1      -5.335   0.144   1.211  1.00  0.00     0.027 A 
ATOM     22  C   UNL     1      -5.307  -2.003   0.086  1.00  0.00    -0.027 A 
ATOM     23  C   UNL     1      -6.684  -0.021   1.527  1.00  0.00     0.002 A 
ATOM     24  C   UNL     1      -6.663  -2.163   0.434  1.00  0.00     0.005 A 
ATOM     25  C   UNL     1      -4.690  -3.085  -0.759  1.00  0.00     0.046 C 
ATOM     26  C   UNL     1      -7.346  -1.180   1.148  1.00  0.00     0.000 A 
ENDBRANCH  13  20
ENDBRANCH   3   9
ENDBRANCH   1   2
BRANCH   1  27
ATOM     27  C   UNL     1       6.491  -0.485   0.523  1.00  0.00     0.263 C 
BRANCH  27  28
ATOM     28  C   UNL     1       7.852  -0.086  -0.047  1.00  0.00     0.177 C 
BRANCH  28  29
ATOM     29  O   UNL     1       8.818  -0.032   1.010  1.00  0.00    -0.387 OA
ATOM     30  H   UNL     1       9.549   0.521   0.667  1.00  0.00     0.211 HD
ENDBRANCH  28  29
BRANCH  28  31
ATOM     31  C   UNL     1       7.809   1.274  -0.752  1.00  0.00     0.191 C 
BRANCH  31  32
ATOM     32  O   UNL     1       9.126   1.589  -1.218  1.00  0.00    -0.394 OA
ATOM     33  H   UNL     1       9.280   1.056  -2.019  1.00  0.00     0.210 HD
ENDBRANCH  31  32
ENDBRANCH  28  31
ENDBRANCH  27  28
ENDBRANCH   1  27
TORSDOF 10
