REMARK SMILES COc1ccc2c3c1O[C@H]1C[C@@H](O)C=C[C@@]31CCN(C)C2
REMARK SMILES IDX 21 1 6 2 3 3 4 4 8 5 5 6 7 7 9 8 16 9 10 10 15 11 11 12
REMARK SMILES IDX 14 13 12 14 2 15 1 16 17 17 13 19 19 21 20 22 18 23
REMARK H PARENT 13 20
REMARK Flexibility Score: 90.00
ROOT
ATOM      1  C   UNL     1      -1.329  -2.097  -0.564  1.00  0.00     0.120 C 
ENDROOT
BRANCH   1   2
ATOM      2  C   UNL     1       0.089  -1.598  -0.443  1.00  0.00    -0.026 A 
ATOM      3  C   UNL     1       2.760  -0.773   0.091  1.00  0.00     0.161 A 
ATOM      4  C   UNL     1       2.496  -2.063  -0.368  1.00  0.00     0.051 A 
ATOM      5  C   UNL     1       1.677   0.085   0.240  1.00  0.00     0.166 A 
ATOM      6  C   UNL     1       1.174  -2.475  -0.613  1.00  0.00     0.009 A 
ATOM      7  C   UNL     1       0.376  -0.286  -0.077  1.00  0.00     0.016 A 
ATOM      8  O   UNL     1       1.779   1.335   0.795  1.00  0.00    -0.485 OA
ATOM      9  C   UNL     1      -0.574   0.832   0.208  1.00  0.00     0.056 C 
ATOM     10  C   UNL     1       0.452   1.913   0.707  1.00  0.00     0.191 C 
ATOM     11  C   UNL     1      -1.378   1.302  -0.996  1.00  0.00    -0.013 C 
ATOM     12  C   UNL     1       0.612   3.146  -0.191  1.00  0.00     0.082 C 
ATOM     13  C   UNL     1      -1.482   2.586  -1.371  1.00  0.00     0.001 C 
ATOM     14  C   UNL     1      -0.715   3.676  -0.703  1.00  0.00     0.140 C 
BRANCH   3  15
ATOM     15  O   UNL     1       3.988  -0.274   0.418  1.00  0.00    -0.493 OA
ATOM     16  C   UNL     1       5.093  -1.161   0.321  1.00  0.00     0.278 C 
ENDBRANCH   3  15
BRANCH   9  17
ATOM     17  C   UNL     1      -1.516   0.402   1.357  1.00  0.00     0.035 CG0
ATOM     18  G   UNL     1      -2.572  -0.668   1.015  1.00  0.00     0.000 G0
ENDBRANCH   9  17
BRANCH  14  19
ATOM     19  O   UNL     1      -0.476   4.702  -1.658  1.00  0.00    -0.389 OA
ATOM     20  H   UNL     1       0.082   4.323  -2.359  1.00  0.00     0.211 HD
ENDBRANCH  14  19
ENDBRANCH   1   2
BRANCH   1  21
ATOM     21  N   UNL     1      -2.062  -2.018   0.713  1.00  0.00    -0.302 NA
ATOM     22  C   UNL     1      -3.183  -2.966   0.693  1.00  0.00     0.105 C 
BRANCH  21  23
ATOM     23  C   UNL     1      -2.572  -0.668   1.015  1.00  0.00     0.086 CG0
ATOM     24  G   UNL     1      -1.516   0.402   1.357  1.00  0.00     0.000 G0
ENDBRANCH  21  23
ENDBRANCH   1  21
TORSDOF 2
