REMARK SMILES Nc1ccn(C[C@@H](CO)OCP(=O)(O)O)c(=O)n1
REMARK SMILES IDX 10 1 7 2 6 3 5 4 1 5 2 6 3 9 18 10 4 11 16 12 17 13 8 14
REMARK SMILES IDX 9 15 11 17 12 18 13 19 14 20 15 22
REMARK H PARENT 1 7 1 8 9 16 14 21 15 23
REMARK Flexibility Score: inf
ROOT
ATOM      1  O   UNL     1       1.682  -0.519   0.101  1.00  0.00    -0.361 OA
ENDROOT
BRANCH   1   2
ATOM      2  C   UNL     1       0.785  -1.582   0.482  1.00  0.00     0.164 C 
BRANCH   2   3
ATOM      3  C   UNL     1      -0.392  -1.643  -0.512  1.00  0.00     0.161 C 
BRANCH   3   4
ATOM      4  N   UNL     1      -1.358  -0.557  -0.318  1.00  0.00    -0.296 N 
ATOM      5  N   UNL     1      -4.058   2.384   0.377  1.00  0.00    -0.383 N 
ATOM      6  C   UNL     1      -3.143   1.396   0.136  1.00  0.00     0.130 C 
ATOM      7  H   UNL     1      -4.469   2.302   1.303  1.00  0.00     0.158 HD
ATOM      8  H   UNL     1      -3.781   3.331   0.150  1.00  0.00     0.158 HD
ATOM      9  C   UNL     1      -2.226   1.518  -1.014  1.00  0.00     0.065 C 
ATOM     10  N   UNL     1      -3.129   0.394   0.958  1.00  0.00    -0.176 NA
ATOM     11  C   UNL     1      -1.369   0.513  -1.182  1.00  0.00     0.095 C 
ATOM     12  C   UNL     1      -2.232  -0.629   0.772  1.00  0.00     0.349 C 
ATOM     13  O   UNL     1      -2.175  -1.574   1.557  1.00  0.00    -0.246 OA
ENDBRANCH   3   4
ENDBRANCH   2   3
BRANCH   2  14
ATOM     14  C   UNL     1       1.578  -2.899   0.454  1.00  0.00     0.190 C 
BRANCH  14  15
ATOM     15  O   UNL     1       1.991  -3.225  -0.872  1.00  0.00    -0.394 OA
ATOM     16  H   UNL     1       2.531  -4.033  -0.811  1.00  0.00     0.210 HD
ENDBRANCH  14  15
ENDBRANCH   2  14
ENDBRANCH   1   2
BRANCH   1  17
ATOM     17  C   UNL     1       1.556   0.643   0.938  1.00  0.00     0.289 C 
BRANCH  17  18
ATOM     18  P   UNL     1       2.420   1.968   0.085  1.00  0.00     0.350 P 
ATOM     19  O   UNL     1       2.871   3.131   0.903  1.00  0.00    -0.258 OA
BRANCH  18  20
ATOM     20  O   UNL     1       3.595   1.208  -0.707  1.00  0.00    -0.323 OA
ATOM     21  H   UNL     1       3.361   0.260  -0.832  1.00  0.00     0.221 HD
ENDBRANCH  18  20
BRANCH  18  22
ATOM     22  O   UNL     1       1.493   2.394  -1.156  1.00  0.00    -0.323 OA
ATOM     23  H   UNL     1       1.908   3.136  -1.637  1.00  0.00     0.221 HD
ENDBRANCH  18  22
ENDBRANCH  17  18
ENDBRANCH   1  17
TORSDOF 9
