REMARK SMILES N[C@@H]1[C@H]2CN(c3nc4c(cc3F)c(=O)c(C(=O)O)cn4-c3ccc(F)cc3F)C[C@@H]12
REMARK SMILES IDX 6 1 7 2 8 3 9 4 10 5 11 6 12 7 13 8 14 9 15 10 19 11 20 12
REMARK SMILES IDX 5 13 2 14 3 15 30 16 4 17 29 18 1 19 21 22 22 23 27 24 23 25
REMARK SMILES IDX 26 26 28 27 24 28 25 29 16 30 17 31 18 32
REMARK H PARENT 1 20 1 21 18 33
REMARK Flexibility Score: inf
ROOT
ATOM      1  C   UNL     1       1.256   1.035   0.125  1.00  0.00     0.167 A 
ATOM      2  N   UNL     1       0.064   0.386   0.071  1.00  0.00    -0.209 NA
ATOM      3  C   UNL     1      -1.109   1.070   0.149  1.00  0.00     0.151 A 
ATOM      4  C   UNL     1      -1.114   2.453   0.332  1.00  0.00     0.069 A 
ATOM      5  C   UNL     1       0.096   3.140   0.404  1.00  0.00     0.059 A 
ATOM      6  C   UNL     1       1.279   2.424   0.297  1.00  0.00     0.166 A 
ATOM      7  F   UNL     1       2.433   3.104   0.372  1.00  0.00    -0.203 F 
ATOM      8  C   UNL     1      -2.387   3.188   0.491  1.00  0.00     0.205 C 
ATOM      9  O   UNL     1      -2.362   4.390   0.729  1.00  0.00    -0.288 OA
ATOM     10  C   UNL     1      -3.642   2.412   0.399  1.00  0.00     0.124 C 
ATOM     11  C   UNL     1      -3.534   1.086   0.226  1.00  0.00     0.113 C 
ATOM     12  N   UNL     1      -2.356   0.361   0.090  1.00  0.00    -0.297 N 
ENDROOT
BRANCH   1  13
ATOM     13  N   UNL     1       2.394   0.266   0.035  1.00  0.00    -0.353 N 
ATOM     14  C   UNL     1       4.722  -1.488   0.515  1.00  0.00     0.061 C 
ATOM     15  C   UNL     1       3.686  -1.584  -0.573  1.00  0.00     0.032 C 
ATOM     16  C   UNL     1       4.572  -0.387  -0.502  1.00  0.00     0.032 C 
ATOM     17  C   UNL     1       2.271  -1.143  -0.341  1.00  0.00     0.123 C 
ATOM     18  C   UNL     1       3.721   0.818  -0.225  1.00  0.00     0.123 C 
BRANCH  14  19
ATOM     19  N   UNL     1       5.891  -2.365   0.464  1.00  0.00    -0.327 NA
ATOM     20  H   UNL     1       6.226  -2.492  -0.491  1.00  0.00     0.119 HD
ATOM     21  H   UNL     1       6.669  -1.959   0.983  1.00  0.00     0.119 HD
ENDBRANCH  14  19
ENDBRANCH   1  13
BRANCH  12  22
ATOM     22  C   UNL     1      -2.414  -1.048  -0.148  1.00  0.00     0.083 A 
ATOM     23  C   UNL     1      -3.117  -1.891   0.733  1.00  0.00     0.033 A 
ATOM     24  C   UNL     1      -1.783  -1.635  -1.262  1.00  0.00     0.150 A 
ATOM     25  C   UNL     1      -3.165  -3.270   0.510  1.00  0.00     0.041 A 
ATOM     26  C   UNL     1      -1.830  -3.007  -1.489  1.00  0.00     0.080 A 
ATOM     27  F   UNL     1      -1.163  -0.868  -2.173  1.00  0.00    -0.205 F 
ATOM     28  C   UNL     1      -2.520  -3.813  -0.596  1.00  0.00     0.126 A 
ATOM     29  F   UNL     1      -2.572  -5.135  -0.805  1.00  0.00    -0.207 F 
ENDBRANCH  12  22
BRANCH  10  30
ATOM     30  C   UNL     1      -4.995   2.976   0.476  1.00  0.00     0.341 C 
ATOM     31  O   UNL     1      -5.993   2.371   0.834  1.00  0.00    -0.246 OA
BRANCH  30  32
ATOM     32  O   UNL     1      -5.072   4.242   0.045  1.00  0.00    -0.477 OA
ATOM     33  H   UNL     1      -6.009   4.499   0.159  1.00  0.00     0.297 HD
ENDBRANCH  30  32
ENDBRANCH  10  30
TORSDOF 5
