REMARK SMILES N[C@@H]1CCCCN(c2c(F)cc3c(=O)c(C(=O)O)cn(C4CC4)c3c2Cl)C1
REMARK SMILES IDX 7 1 27 2 2 3 1 4 3 7 6 9 5 10 4 11 8 13 9 14 25 15 10 16
REMARK SMILES IDX 11 17 24 18 26 19 12 20 20 21 13 22 19 23 14 24 15 25 21 26
REMARK SMILES IDX 22 27 23 28 16 29 17 30 18 31
REMARK H PARENT 1 5 1 6 18 32
REMARK Flexibility Score: 90.00
ROOT
ATOM      1  N   UNL     1      -1.946   0.080   0.628  1.00  0.00    -0.366 N 
ENDROOT
BRANCH   1   2
ATOM      2  C   UNL     1      -2.415  -1.162  -0.008  1.00  0.00     0.135 C 
BRANCH   2   3
ATOM      3  C   UNL     1      -3.592  -0.973  -1.001  1.00  0.00     0.070 C 
BRANCH   3   4
ATOM      4  N   UNL     1      -3.215  -0.193  -2.194  1.00  0.00    -0.326 NA
ATOM      5  H   UNL     1      -2.919   0.737  -1.881  1.00  0.00     0.119 HD
ATOM      6  H   UNL     1      -2.380  -0.601  -2.612  1.00  0.00     0.119 HD
ENDBRANCH   3   4
BRANCH   3   7
ATOM      7  C   UNL     1      -4.883  -0.373  -0.406  1.00  0.00     0.020 CG0
ATOM      8  G   UNL     1      -5.009  -0.499   1.110  1.00  0.00     0.000 G0
ENDBRANCH   3   7
ENDBRANCH   2   3
ENDBRANCH   1   2
BRANCH   1   9
ATOM      9  C   UNL     1      -2.913   1.055   1.136  1.00  0.00     0.117 C 
BRANCH   9  10
ATOM     10  C   UNL     1      -4.050   0.390   1.919  1.00  0.00     0.021 C 
BRANCH  10  11
ATOM     11  C   UNL     1      -5.009  -0.499   1.110  1.00  0.00     0.003 CG0
ATOM     12  G   UNL     1      -4.883  -0.373  -0.406  1.00  0.00     0.000 G0
ENDBRANCH  10  11
ENDBRANCH   9  10
ENDBRANCH   1   9
BRANCH   1  13
ATOM     13  C   UNL     1      -0.682   0.545   0.216  1.00  0.00     0.094 A 
ATOM     14  C   UNL     1      -0.545   1.706  -0.562  1.00  0.00     0.148 A 
ATOM     15  C   UNL     1       0.518  -0.143   0.578  1.00  0.00     0.091 A 
ATOM     16  F   UNL     1      -1.630   2.380  -0.974  1.00  0.00    -0.205 F 
ATOM     17  C   UNL     1       0.692   2.192  -0.951  1.00  0.00     0.056 A 
ATOM     18  C   UNL     1       1.798   0.283   0.127  1.00  0.00     0.073 A 
ATOM     19  Cl  UNL     1       0.361  -1.422   1.763  1.00  0.00    -0.080 Cl
ATOM     20  C   UNL     1       1.849   1.495  -0.599  1.00  0.00     0.051 A 
ATOM     21  N   UNL     1       3.037  -0.399   0.357  1.00  0.00    -0.342 N 
ATOM     22  C   UNL     1       3.156   2.074  -1.013  1.00  0.00     0.204 C 
ATOM     23  C   UNL     1       4.233   0.256   0.119  1.00  0.00     0.106 C 
ATOM     24  O   UNL     1       3.182   3.033  -1.777  1.00  0.00    -0.288 OA
ATOM     25  C   UNL     1       4.382   1.439  -0.492  1.00  0.00     0.124 C 
BRANCH  21  26
ATOM     26  C   UNL     1       3.132  -1.844   0.652  1.00  0.00     0.087 C 
ATOM     27  C   UNL     1       4.003  -2.770  -0.170  1.00  0.00     0.027 C 
ATOM     28  C   UNL     1       2.517  -2.886  -0.253  1.00  0.00     0.027 C 
ENDBRANCH  21  26
BRANCH  25  29
ATOM     29  C   UNL     1       5.739   1.975  -0.637  1.00  0.00     0.341 C 
ATOM     30  O   UNL     1       6.766   1.317  -0.649  1.00  0.00    -0.246 OA
BRANCH  29  31
ATOM     31  O   UNL     1       5.776   3.314  -0.688  1.00  0.00    -0.477 OA
ATOM     32  H   UNL     1       6.722   3.539  -0.800  1.00  0.00     0.297 HD
ENDBRANCH  29  31
ENDBRANCH  25  29
ENDBRANCH   1  13
TORSDOF 5
