REMARK SMILES N#CCC1(n2cc(-c3ncnc4[nH]ccc34)cn2)CN(C2CCN(C(=O)c3ccnc(C(F)(F)F)c3F)CC2)C1
REMARK SMILES IDX 25 1 26 2 24 3 23 4 22 5 21 6 39 7 38 8 27 9 37 10 36 11
REMARK SMILES IDX 31 12 30 13 28 14 29 15 32 16 33 17 34 18 35 19 20 20 19 21
REMARK SMILES IDX 40 22 4 23 3 24 2 25 1 26 5 27 6 28 18 29 7 30 17 31 8 32
REMARK SMILES IDX 16 33 9 34 15 35 12 36 10 37 14 38 13 39 11 40
REMARK H PARENT 13 41
REMARK Flexibility Score: inf
ROOT
ATOM      1  C   UNL     1       4.811  -2.012  -0.986  1.00  0.00     0.256 C 
ATOM      2  O   UNL     1       4.793  -3.231  -1.151  1.00  0.00    -0.269 OA
ATOM      3  N   UNL     1       3.655  -1.250  -0.824  1.00  0.00    -0.338 N 
ATOM      4  C   UNL     1       3.603   0.209  -0.746  1.00  0.00     0.121 C 
ATOM      5  C   UNL     1       2.393   0.810  -1.453  1.00  0.00     0.041 C 
ATOM      6  C   UNL     1       1.072   0.050  -1.212  1.00  0.00     0.060 C 
ATOM      7  C   UNL     1       1.255  -1.083  -0.191  1.00  0.00     0.041 C 
ATOM      8  C   UNL     1       2.407  -1.981  -0.627  1.00  0.00     0.121 C 
ENDROOT
BRANCH   1   9
ATOM      9  C   UNL     1       6.131  -1.362  -0.999  1.00  0.00     0.079 A 
ATOM     10  F   UNL     1       5.801  -0.410   1.151  1.00  0.00    -0.204 F 
ATOM     11  C   UNL     1       6.575  -0.601   0.075  1.00  0.00     0.166 A 
ATOM     12  C   UNL     1       7.839  -0.033   0.014  1.00  0.00     0.181 A 
ATOM     13  N   UNL     1       8.663  -0.214  -1.066  1.00  0.00    -0.249 NA
ATOM     14  C   UNL     1       6.972  -1.588  -2.089  1.00  0.00     0.037 A 
ATOM     15  C   UNL     1       8.219  -0.994  -2.076  1.00  0.00     0.113 A 
BRANCH  12  16
ATOM     16  C   UNL     1       8.279   0.837   1.173  1.00  0.00     0.436 C 
ATOM     17  F   UNL     1       7.541   1.982   1.274  1.00  0.00    -0.164 F 
ATOM     18  F   UNL     1       8.163   0.217   2.382  1.00  0.00    -0.164 F 
ATOM     19  F   UNL     1       9.578   1.247   1.098  1.00  0.00    -0.164 F 
ENDBRANCH  12  16
ENDBRANCH   1   9
BRANCH   6  20
ATOM     20  N   UNL     1       0.005   1.044  -1.014  1.00  0.00    -0.295 NA
ATOM     21  C   UNL     1      -0.342   1.351   0.394  1.00  0.00     0.118 C 
ATOM     22  C   UNL     1      -1.354   0.510  -1.227  1.00  0.00     0.118 C 
ATOM     23  C   UNL     1      -1.828   1.457  -0.076  1.00  0.00     0.101 C 
BRANCH  23  24
ATOM     24  C   UNL     1      -2.377   2.849  -0.379  1.00  0.00     0.153 C 
BRANCH  24  25
ATOM     25  C   UNL     1      -1.559   3.642  -1.309  1.00  0.00     0.065 C 
ATOM     26  N   UNL     1      -0.955   4.304  -2.046  1.00  0.00    -0.198 NA
ENDBRANCH  24  25
ENDBRANCH  23  24
BRANCH  23  27
ATOM     27  N   UNL     1      -2.762   0.742   0.832  1.00  0.00    -0.262 N 
ATOM     28  C   UNL     1      -3.969   0.232   0.432  1.00  0.00     0.119 A 
ATOM     29  N   UNL     1      -2.552   0.630   2.155  1.00  0.00    -0.180 NA
ATOM     30  C   UNL     1      -4.544  -0.310   1.562  1.00  0.00     0.039 A 
ATOM     31  C   UNL     1      -3.605  -0.072   2.585  1.00  0.00     0.145 A 
BRANCH  30  32
ATOM     32  C   UNL     1      -5.807  -0.994   1.603  1.00  0.00     0.086 A 
ATOM     33  C   UNL     1      -6.990  -0.369   1.204  1.00  0.00     0.045 A 
ATOM     34  N   UNL     1      -5.825  -2.264   2.065  1.00  0.00    -0.235 NA
ATOM     35  C   UNL     1      -7.404   0.908   0.724  1.00  0.00     0.032 A 
ATOM     36  C   UNL     1      -8.134  -1.147   1.295  1.00  0.00     0.141 A 
ATOM     37  C   UNL     1      -7.013  -2.896   2.089  1.00  0.00     0.224 A 
ATOM     38  C   UNL     1      -8.771   0.865   0.537  1.00  0.00     0.085 A 
ATOM     39  N   UNL     1      -9.199  -0.392   0.880  1.00  0.00    -0.346 N 
ATOM     40  N   UNL     1      -8.216  -2.416   1.721  1.00  0.00    -0.219 NA
ATOM     41  H   UNL     1     -10.152  -0.727   0.859  1.00  0.00     0.167 HD
ENDBRANCH  30  32
ENDBRANCH  23  27
ENDBRANCH   6  20
TORSDOF 7
