REMARK SMILES Cc1ccc(-n2nccn2)c(C(=O)N2CCN(c3nc4cc(Cl)ccc4o3)CC[C@H]2C)c1
REMARK SMILES IDX 30 1 31 2 14 3 12 4 13 5 11 6 1 7 2 8 3 9 32 10 4 11 5 12
REMARK SMILES IDX 6 13 7 14 10 15 8 16 9 17 15 18 29 20 28 21 17 22 16 23
REMARK SMILES IDX 18 25 19 26 27 27 20 28 26 29 21 30 25 31 22 32 24 33 23 34
REMARK H PARENT
REMARK Flexibility Score: 80.00
ROOT
ATOM      1  C   UNL     1      -0.467  -0.462   0.302  1.00  0.00     0.084 C 
ATOM      2  C   UNL     1       0.120   0.828   0.886  1.00  0.00     0.031 C 
ENDROOT
BRANCH   1   3
ATOM      3  N   UNL     1      -0.894  -0.322  -1.108  1.00  0.00    -0.334 N 
BRANCH   3   4
ATOM      4  C   UNL     1      -2.234  -0.233  -1.519  1.00  0.00     0.256 C 
ATOM      5  O   UNL     1      -2.597  -0.293  -2.693  1.00  0.00    -0.269 OA
BRANCH   4   6
ATOM      6  C   UNL     1      -3.298  -0.145  -0.504  1.00  0.00     0.067 A 
ATOM      7  C   UNL     1      -5.428  -2.745   1.302  1.00  0.00     0.044 C 
ATOM      8  C   UNL     1      -4.876  -1.427   0.847  1.00  0.00    -0.050 A 
ATOM      9  C   UNL     1      -5.344  -0.231   1.397  1.00  0.00     0.006 A 
ATOM     10  C   UNL     1      -3.848  -1.377  -0.100  1.00  0.00     0.019 A 
ATOM     11  C   UNL     1      -4.819   0.998   0.981  1.00  0.00     0.031 A 
ATOM     12  C   UNL     1      -3.795   1.058   0.017  1.00  0.00     0.098 A 
BRANCH  12  13
ATOM     13  N   UNL     1      -3.318   2.335  -0.386  1.00  0.00    -0.151 N 
ATOM     14  N   UNL     1      -2.318   2.524  -1.284  1.00  0.00    -0.157 NA
ATOM     15  N   UNL     1      -3.835   3.485   0.149  1.00  0.00    -0.157 NA
ATOM     16  C   UNL     1      -2.225   3.851  -1.353  1.00  0.00     0.157 A 
ATOM     17  C   UNL     1      -3.143   4.434  -0.483  1.00  0.00     0.157 A 
ENDBRANCH  12  13
ENDBRANCH   4   6
ENDBRANCH   3   4
BRANCH   3  18
ATOM     18  C   UNL     1       0.079  -0.357  -2.214  1.00  0.00     0.141 CG0
ATOM     19  G   UNL     1       1.561  -0.082  -1.917  1.00  0.00     0.000 G0
ENDBRANCH   3  18
ENDBRANCH   1   3
BRANCH   1  20
ATOM     20  C   UNL     1       0.378  -1.715   0.600  1.00  0.00     0.046 C 
BRANCH  20  21
ATOM     21  C   UNL     1       1.432  -2.110  -0.425  1.00  0.00     0.123 C 
BRANCH  21  22
ATOM     22  N   UNL     1       2.165  -0.962  -0.913  1.00  0.00    -0.324 N 
BRANCH  22  23
ATOM     23  C   UNL     1       1.561  -0.082  -1.917  1.00  0.00     0.143 CG0
ATOM     24  G   UNL     1       0.079  -0.357  -2.214  1.00  0.00     0.000 G0
ENDBRANCH  22  23
BRANCH  22  25
ATOM     25  C   UNL     1       3.351  -0.595  -0.380  1.00  0.00     0.298 A 
ATOM     26  N   UNL     1       4.116   0.424  -0.718  1.00  0.00    -0.193 NA
ATOM     27  O   UNL     1       3.840  -1.343   0.660  1.00  0.00    -0.423 OA
ATOM     28  C   UNL     1       5.176   0.350   0.146  1.00  0.00     0.113 A 
ATOM     29  C   UNL     1       5.011  -0.732   0.992  1.00  0.00     0.156 A 
ATOM     30  C   UNL     1       6.311   1.158   0.283  1.00  0.00     0.053 A 
ATOM     31  C   UNL     1       5.901  -1.101   1.993  1.00  0.00     0.051 A 
ATOM     32  C   UNL     1       7.230   0.819   1.284  1.00  0.00     0.043 A 
ATOM     33  C   UNL     1       7.032  -0.286   2.123  1.00  0.00     0.024 A 
ATOM     34  Cl  UNL     1       8.640   1.788   1.490  1.00  0.00    -0.084 Cl
ENDBRANCH  22  25
ENDBRANCH  21  22
ENDBRANCH  20  21
ENDBRANCH   1  20
TORSDOF 4
