REMARK SMILES Cc1onc(-c2ccccc2Cl)c1C(=O)N[C@@H]1C(=O)N2[C@@H]1SC(C)(C)[C@@H]2C(=O)O
REMARK SMILES IDX 17 1 18 2 19 3 20 4 21 5 22 6 23 7 24 8 25 9 26 10 16 11
REMARK SMILES IDX 14 12 15 13 13 15 1 16 2 17 3 18 4 19 5 20 6 21 7 22 11 23
REMARK SMILES IDX 8 24 10 25 12 26 9 27 27 28 28 29 29 30
REMARK H PARENT 16 14 29 31
REMARK Flexibility Score: inf
ROOT
ATOM      1  C   UNL     1      -0.739  -1.459   0.935  1.00  0.00     0.205 C 
ATOM      2  C   UNL     1      -2.191  -1.921   0.683  1.00  0.00     0.250 C 
ATOM      3  O   UNL     1      -2.749  -2.669  -0.087  1.00  0.00    -0.272 OA
ATOM      4  N   UNL     1      -2.685  -1.017   1.577  1.00  0.00    -0.311 N 
ATOM      5  C   UNL     1      -1.416  -0.274   1.677  1.00  0.00     0.176 C 
ATOM      6  S   UNL     1      -1.686   1.275   0.718  1.00  0.00    -0.125 SA
ATOM      7  C   UNL     1      -3.483   0.952   0.402  1.00  0.00     0.044 C 
ATOM      8  C   UNL     1      -3.629   0.598  -1.088  1.00  0.00     0.026 C 
ATOM      9  C   UNL     1      -4.257   2.249   0.670  1.00  0.00     0.026 C 
ATOM     10  C   UNL     1      -3.887  -0.242   1.296  1.00  0.00     0.211 C 
ENDROOT
BRANCH   1  11
ATOM     11  N   UNL     1       0.055  -1.149  -0.284  1.00  0.00    -0.337 N 
ATOM     12  C   UNL     1       1.306  -0.581  -0.182  1.00  0.00     0.257 C 
ATOM     13  O   UNL     1       1.817  -0.378   0.915  1.00  0.00    -0.269 OA
ATOM     14  H   UNL     1      -0.286  -1.451  -1.186  1.00  0.00     0.164 HD
BRANCH  12  15
ATOM     15  C   UNL     1       1.981  -0.294  -1.431  1.00  0.00     0.110 A 
ATOM     16  C   UNL     1       0.076   0.045  -3.240  1.00  0.00     0.092 C 
ATOM     17  C   UNL     1       1.439  -0.062  -2.682  1.00  0.00     0.147 A 
ATOM     18  O   UNL     1       2.441   0.133  -3.579  1.00  0.00    -0.360 OA
ATOM     19  N   UNL     1       3.658   0.068  -2.941  1.00  0.00    -0.079 NA
ATOM     20  C   UNL     1       3.386  -0.141  -1.644  1.00  0.00     0.128 A 
BRANCH  20  21
ATOM     21  C   UNL     1       4.468  -0.230  -0.675  1.00  0.00     0.023 A 
ATOM     22  C   UNL     1       5.220  -1.415  -0.613  1.00  0.00     0.012 A 
ATOM     23  C   UNL     1       4.784   0.828   0.189  1.00  0.00     0.050 A 
ATOM     24  C   UNL     1       6.261  -1.544   0.308  1.00  0.00     0.001 A 
ATOM     25  C   UNL     1       5.827   0.693   1.111  1.00  0.00     0.021 A 
ATOM     26  Cl  UNL     1       3.936   2.337   0.153  1.00  0.00    -0.084 Cl
ATOM     27  C   UNL     1       6.562  -0.492   1.171  1.00  0.00     0.002 A 
ENDBRANCH  20  21
ENDBRANCH  12  15
ENDBRANCH   1  11
BRANCH  10  28
ATOM     28  C   UNL     1      -4.493   0.163   2.638  1.00  0.00     0.327 C 
ATOM     29  O   UNL     1      -3.902   0.384   3.683  1.00  0.00    -0.250 OA
BRANCH  28  30
ATOM     30  O   UNL     1      -5.836   0.293   2.581  1.00  0.00    -0.480 OA
ATOM     31  H   UNL     1      -6.091   0.540   3.497  1.00  0.00     0.296 HD
ENDBRANCH  28  30
ENDBRANCH  10  28
TORSDOF 5
