REMARK SMILES Clc1ccc2c(c1)CCc1cccnc1C2=C1CCNCC1
REMARK SMILES IDX 16 1 17 2 18 3 19 4 20 5 21 6 22 7 5 9 1 10 2 11 3 12 7 13
REMARK SMILES IDX 4 14 6 15 8 16 15 18 10 19 14 20 11 21 13 22 12 23 9 24
REMARK H PARENT 20 8
REMARK Flexibility Score: 80.00
ROOT
ATOM      1  C   UNL     1       0.073   0.044  -0.614  1.00  0.00     0.007 C 
ATOM      2  C   UNL     1       1.372  -0.226  -0.305  1.00  0.00    -0.058 C 
ATOM      3  C   UNL     1       1.929  -1.605   0.004  1.00  0.00     0.047 C 
ATOM      4  C   UNL     1       2.660  -1.638   1.360  1.00  0.00     0.085 C 
ATOM      5  N   UNL     1       3.500  -0.474   1.667  1.00  0.00    -0.316 NA
ATOM      6  C   UNL     1       3.742   0.359   0.491  1.00  0.00     0.085 C 
ATOM      7  C   UNL     1       2.433   0.860  -0.146  1.00  0.00     0.047 C 
ATOM      8  H   UNL     1       4.383  -0.779   2.072  1.00  0.00     0.122 HD
ENDROOT
BRANCH   1   9
ATOM      9  C   UNL     1      -0.912  -1.061  -0.665  1.00  0.00    -0.013 A 
ATOM     10  Cl  UNL     1      -3.957  -4.387  -0.767  1.00  0.00    -0.084 Cl
ATOM     11  C   UNL     1      -2.798  -3.116  -0.730  1.00  0.00     0.041 A 
ATOM     12  C   UNL     1      -1.861  -3.006  -1.757  1.00  0.00     0.021 A 
ATOM     13  C   UNL     1      -2.810  -2.199   0.322  1.00  0.00     0.024 A 
ATOM     14  C   UNL     1      -0.921  -1.975  -1.727  1.00  0.00     0.010 A 
ATOM     15  C   UNL     1      -1.871  -1.160   0.358  1.00  0.00    -0.038 A 
BRANCH  15  16
ATOM     16  C   UNL     1      -1.890  -0.126   1.457  1.00  0.00     0.041 CG0
ATOM     17  G   UNL     1      -2.328   1.251   0.941  1.00  0.00     0.000 G0
ENDBRANCH  15  16
ENDBRANCH   1   9
BRANCH   1  18
ATOM     18  C   UNL     1      -0.395   1.447  -0.795  1.00  0.00     0.074 A 
ATOM     19  C   UNL     1      -1.480   1.979  -0.082  1.00  0.00    -0.021 A 
ATOM     20  N   UNL     1       0.285   2.157  -1.737  1.00  0.00    -0.256 NA
ATOM     21  C   UNL     1      -1.841   3.308  -0.370  1.00  0.00     0.007 A 
ATOM     22  C   UNL     1      -0.097   3.428  -1.973  1.00  0.00     0.112 A 
ATOM     23  C   UNL     1      -1.144   4.044  -1.320  1.00  0.00     0.020 A 
BRANCH  19  24
ATOM     24  C   UNL     1      -2.328   1.251   0.941  1.00  0.00     0.042 CG0
ATOM     25  G   UNL     1      -1.890  -0.126   1.457  1.00  0.00     0.000 G0
ENDBRANCH  19  24
ENDBRANCH   1  18
TORSDOF 0
