REMARK SMILES NS(=O)(=O)c1cncc(-c2nc(NCc3ccccn3)c3c(-c4ccccc4)cccc3n2)c1
REMARK SMILES IDX 10 1 11 2 12 3 21 4 32 5 31 6 30 7 29 8 22 9 33 10 9 11 5 12
REMARK SMILES IDX 6 13 34 14 7 15 8 16 2 17 3 18 4 19 1 20 13 23 14 25 15 26
REMARK SMILES IDX 20 27 16 28 19 29 17 30 18 31 23 32 24 33 28 34 25 35 27 36
REMARK SMILES IDX 26 37
REMARK H PARENT 1 21 1 22 13 24
REMARK Flexibility Score: inf
ROOT
ATOM      1  C   UNL     1       1.767   0.286  -0.418  1.00  0.00     0.163 A 
ATOM      2  N   UNL     1       0.510   0.737  -0.426  1.00  0.00    -0.211 NA
ATOM      3  C   UNL     1      -0.483  -0.146  -0.645  1.00  0.00     0.138 A 
ATOM      4  C   UNL     1      -0.240  -1.538  -0.834  1.00  0.00     0.051 A 
ATOM      5  C   UNL     1       1.127  -1.870  -0.817  1.00  0.00     0.077 A 
ATOM      6  C   UNL     1       1.529  -3.183  -1.008  1.00  0.00     0.029 A 
ATOM      7  C   UNL     1       0.621  -4.214  -1.214  1.00  0.00     0.003 A 
ATOM      8  C   UNL     1      -0.732  -3.928  -1.222  1.00  0.00     0.009 A 
ATOM      9  C   UNL     1      -1.193  -2.610  -1.033  1.00  0.00    -0.005 A 
ATOM     10  N   UNL     1       2.108  -0.990  -0.618  1.00  0.00    -0.228 NA
ENDROOT
BRANCH   1  11
ATOM     11  C   UNL     1       2.844   1.248  -0.161  1.00  0.00     0.039 A 
ATOM     12  C   UNL     1       5.163   1.806   0.295  1.00  0.00     0.101 A 
ATOM     13  C   UNL     1       4.818   3.143   0.323  1.00  0.00     0.132 A 
ATOM     14  C   UNL     1       4.174   0.849   0.056  1.00  0.00     0.037 A 
ATOM     15  N   UNL     1       3.552   3.577   0.120  1.00  0.00    -0.263 NA
ATOM     16  C   UNL     1       2.607   2.626  -0.114  1.00  0.00     0.123 A 
BRANCH  12  17
ATOM     17  S   UNL     1       6.821   1.325   0.586  1.00  0.00     0.239 S 
ATOM     18  O   UNL     1       7.659   2.498   0.650  1.00  0.00    -0.207 OA
ATOM     19  O   UNL     1       6.835   0.302   1.608  1.00  0.00    -0.207 OA
BRANCH  17  20
ATOM     20  N   UNL     1       7.238   0.561  -0.851  1.00  0.00    -0.225 NA
ATOM     21  H   UNL     1       7.460  -0.420  -0.677  1.00  0.00     0.137 HD
ATOM     22  H   UNL     1       7.988   1.077  -1.317  1.00  0.00     0.137 HD
ENDBRANCH  17  20
ENDBRANCH  12  17
ENDBRANCH   1  11
BRANCH   3  23
ATOM     23  N   UNL     1      -1.784   0.354  -0.609  1.00  0.00    -0.364 N 
ATOM     24  H   UNL     1      -2.360  -0.013  -1.358  1.00  0.00     0.162 HD
BRANCH  23  25
ATOM     25  C   UNL     1      -2.022   1.780  -0.402  1.00  0.00     0.170 C 
BRANCH  25  26
ATOM     26  C   UNL     1      -2.493   2.058   1.012  1.00  0.00     0.059 A 
ATOM     27  N   UNL     1      -3.809   2.362   1.188  1.00  0.00    -0.259 NA
ATOM     28  C   UNL     1      -1.597   1.999   2.077  1.00  0.00     0.026 A 
ATOM     29  C   UNL     1      -4.232   2.599   2.450  1.00  0.00     0.111 A 
ATOM     30  C   UNL     1      -2.061   2.253   3.365  1.00  0.00     0.004 A 
ATOM     31  C   UNL     1      -3.405   2.555   3.559  1.00  0.00     0.020 A 
ENDBRANCH  25  26
ENDBRANCH  23  25
ENDBRANCH   3  23
BRANCH   9  32
ATOM     32  C   UNL     1      -2.654  -2.423  -1.042  1.00  0.00    -0.018 A 
ATOM     33  C   UNL     1      -3.363  -2.232   0.153  1.00  0.00     0.009 A 
ATOM     34  C   UNL     1      -3.371  -2.455  -2.250  1.00  0.00     0.009 A 
ATOM     35  C   UNL     1      -4.748  -2.058   0.142  1.00  0.00     0.001 A 
ATOM     36  C   UNL     1      -4.757  -2.287  -2.260  1.00  0.00     0.001 A 
ATOM     37  C   UNL     1      -5.443  -2.087  -1.065  1.00  0.00     0.000 A 
ENDBRANCH   9  32
TORSDOF 7
