REMARK SMILES Cc1ccc(-c2nc3ccc(C)cn3c2CC(=O)N(C)C)cc1
REMARK SMILES IDX 6 1 7 2 8 3 9 4 10 5 11 6 12 7 13 8 14 9 15 10 5 11 1 12
REMARK SMILES IDX 2 13 3 14 23 15 4 16 22 17 16 18 17 19 18 20 19 21 20 22
REMARK SMILES IDX 21 23
REMARK H PARENT
REMARK Flexibility Score: inf
ROOT
ATOM      1  C   UNL     1       0.693   0.529  -0.588  1.00  0.00     0.093 A 
ATOM      2  N   UNL     1       0.588   1.253  -1.752  1.00  0.00    -0.228 NA
ATOM      3  C   UNL     1      -0.258   2.222  -1.492  1.00  0.00     0.137 A 
ATOM      4  C   UNL     1      -0.725   3.291  -2.305  1.00  0.00     0.048 C 
ATOM      5  C   UNL     1      -1.591   4.189  -1.800  1.00  0.00     0.009 C 
ATOM      6  C   UNL     1      -2.071   4.099  -0.424  1.00  0.00    -0.034 C 
ATOM      7  C   UNL     1      -3.022   5.151   0.056  1.00  0.00     0.046 C 
ATOM      8  C   UNL     1      -1.633   3.080   0.341  1.00  0.00     0.096 C 
ATOM      9  N   UNL     1      -0.739   2.143  -0.190  1.00  0.00    -0.303 N 
ATOM     10  C   UNL     1      -0.176   1.010   0.384  1.00  0.00     0.060 A 
ENDROOT
BRANCH   1  11
ATOM     11  C   UNL     1       1.580  -0.616  -0.501  1.00  0.00     0.002 A 
ATOM     12  C   UNL     1       4.181  -4.058  -0.328  1.00  0.00     0.044 C 
ATOM     13  C   UNL     1       3.301  -2.846  -0.405  1.00  0.00    -0.051 A 
ATOM     14  C   UNL     1       3.270  -1.925   0.648  1.00  0.00     0.004 A 
ATOM     15  C   UNL     1       2.462  -2.647  -1.507  1.00  0.00     0.004 A 
ATOM     16  C   UNL     1       2.426  -0.811   0.594  1.00  0.00     0.011 A 
ATOM     17  C   UNL     1       1.616  -1.535  -1.558  1.00  0.00     0.011 A 
ENDBRANCH   1  11
BRANCH  10  18
ATOM     18  C   UNL     1      -0.542   0.549   1.763  1.00  0.00     0.157 C 
BRANCH  18  19
ATOM     19  C   UNL     1      -0.540  -0.963   1.949  1.00  0.00     0.228 C 
ATOM     20  O   UNL     1       0.224  -1.459   2.784  1.00  0.00    -0.274 OA
ATOM     21  N   UNL     1      -1.441  -1.739   1.227  1.00  0.00    -0.348 N 
ATOM     22  C   UNL     1      -2.368  -1.225   0.230  1.00  0.00     0.146 C 
ATOM     23  C   UNL     1      -1.276  -3.183   1.251  1.00  0.00     0.146 C 
ENDBRANCH  18  19
ENDBRANCH  10  18
TORSDOF 3
