REMARK SMILES CN(C)CCCN1c2ccccc2CCc2ccc(Cl)cc21
REMARK SMILES IDX 6 1 5 2 4 3 2 4 1 5 3 6 7 7 8 8 9 9 13 10 10 11 12 12 11 13
REMARK SMILES IDX 14 14 22 16 16 17 21 18 17 19 19 20 18 21 20 22 15 23
REMARK H PARENT
REMARK Flexibility Score: 90.00
ROOT
ATOM      1  C   UNL     1       0.563  -0.529  -1.623  1.00  0.00     0.124 C 
ENDROOT
BRANCH   1   2
ATOM      2  C   UNL     1       1.690  -1.174  -0.801  1.00  0.00     0.037 C 
BRANCH   2   3
ATOM      3  C   UNL     1       2.286  -0.204   0.227  1.00  0.00     0.085 C 
BRANCH   3   4
ATOM      4  N   UNL     1       3.415  -0.791   0.977  1.00  0.00    -0.309 NA
ATOM      5  C   UNL     1       3.708   0.029   2.156  1.00  0.00     0.104 C 
ATOM      6  C   UNL     1       4.620  -0.910   0.153  1.00  0.00     0.104 C 
ENDBRANCH   3   4
ENDBRANCH   2   3
ENDBRANCH   1   2
BRANCH   1   7
ATOM      7  N   UNL     1      -0.601  -0.108  -0.807  1.00  0.00    -0.341 N 
BRANCH   7   8
ATOM      8  C   UNL     1      -1.114   1.166  -1.169  1.00  0.00     0.044 A 
ATOM      9  C   UNL     1      -1.294   1.536  -2.514  1.00  0.00     0.026 A 
ATOM     10  C   UNL     1      -1.460   2.094  -0.175  1.00  0.00    -0.024 A 
ATOM     11  C   UNL     1      -1.782   2.798  -2.861  1.00  0.00     0.002 A 
ATOM     12  C   UNL     1      -1.948   3.364  -0.527  1.00  0.00     0.006 A 
ATOM     13  C   UNL     1      -2.104   3.714  -1.866  1.00  0.00     0.000 A 
BRANCH  10  14
ATOM     14  C   UNL     1      -1.313   1.710   1.270  1.00  0.00     0.042 CG0
ATOM     15  G   UNL     1      -2.318   0.628   1.640  1.00  0.00     0.000 G0
ENDBRANCH  10  14
ENDBRANCH   7   8
BRANCH   7  16
ATOM     16  C   UNL     1      -1.355  -1.077  -0.094  1.00  0.00     0.046 A 
ATOM     17  C   UNL     1      -2.162  -0.752   1.024  1.00  0.00    -0.024 A 
ATOM     18  C   UNL     1      -1.353  -2.429  -0.509  1.00  0.00     0.047 A 
ATOM     19  C   UNL     1      -2.923  -1.764   1.662  1.00  0.00     0.007 A 
ATOM     20  C   UNL     1      -2.101  -3.411   0.143  1.00  0.00     0.043 A 
ATOM     21  C   UNL     1      -2.890  -3.085   1.230  1.00  0.00     0.021 A 
ATOM     22  Cl  UNL     1      -2.053  -5.038  -0.420  1.00  0.00    -0.084 Cl
BRANCH  17  23
ATOM     23  C   UNL     1      -2.318   0.628   1.640  1.00  0.00     0.042 CG0
ATOM     24  G   UNL     1      -1.313   1.710   1.270  1.00  0.00     0.000 G0
ENDBRANCH  17  23
ENDBRANCH   7  16
ENDBRANCH   1   7
TORSDOF 4
