REMARK SMILES C=C[C@H]1CN2CC[C@H]1C[C@H]2[C@H](O)c1ccnc2ccc(OC)cc12
REMARK SMILES IDX 11 1 10 2 3 3 4 4 8 5 5 6 7 7 9 8 6 9 2 10 1 11 12 12 13 14
REMARK SMILES IDX 14 15 24 16 15 17 17 18 23 19 16 20 18 21 20 22 19 23 21 24
REMARK SMILES IDX 22 25
REMARK H PARENT 12 13
REMARK Flexibility Score: inf
ROOT
ATOM      1  C   UNL     1      -0.146   0.012  -0.299  1.00  0.00     0.162 C 
ENDROOT
BRANCH   1   2
ATOM      2  C   UNL     1       1.258  -0.318   0.328  1.00  0.00     0.090 C 
ATOM      3  C   UNL     1       4.206  -0.328   0.698  1.00  0.00     0.028 C 
ATOM      4  C   UNL     1       3.347  -1.514   0.173  1.00  0.00     0.092 C 
ATOM      5  C   UNL     1       3.438   0.986   0.394  1.00  0.00    -0.000 C 
ATOM      6  N   UNL     1       2.173  -1.052  -0.617  1.00  0.00    -0.297 NA
ATOM      7  C   UNL     1       3.317   1.106  -1.135  1.00  0.00     0.020 C 
ATOM      8  C   UNL     1       1.998   0.902   0.937  1.00  0.00     0.026 C 
ATOM      9  C   UNL     1       2.672  -0.168  -1.692  1.00  0.00     0.085 C 
BRANCH   3  10
ATOM     10  C   UNL     1       4.650  -0.564   2.127  1.00  0.00    -0.030 C 
ATOM     11  C   UNL     1       4.595   0.291   3.157  1.00  0.00     0.004 C 
ENDBRANCH   3  10
ENDBRANCH   1   2
BRANCH   1  12
ATOM     12  O   UNL     1      -0.102   1.218  -1.065  1.00  0.00    -0.387 OA
ATOM     13  H   UNL     1       0.064   0.956  -1.984  1.00  0.00     0.211 HD
ENDBRANCH   1  12
BRANCH   1  14
ATOM     14  C   UNL     1      -1.338   0.147   0.647  1.00  0.00    -0.007 A 
ATOM     15  C   UNL     1      -1.163   0.422   2.008  1.00  0.00     0.027 A 
ATOM     16  C   UNL     1      -2.677   0.017   0.160  1.00  0.00     0.010 A 
ATOM     17  C   UNL     1      -2.272   0.527   2.825  1.00  0.00     0.112 A 
ATOM     18  C   UNL     1      -3.733   0.141   1.093  1.00  0.00     0.071 A 
ATOM     19  C   UNL     1      -3.023  -0.224  -1.195  1.00  0.00     0.057 A 
ATOM     20  N   UNL     1      -3.538   0.382   2.396  1.00  0.00    -0.256 NA
ATOM     21  C   UNL     1      -5.044   0.010   0.657  1.00  0.00     0.033 A 
ATOM     22  C   UNL     1      -4.350  -0.352  -1.618  1.00  0.00     0.119 A 
ATOM     23  C   UNL     1      -5.365  -0.236  -0.681  1.00  0.00     0.048 A 
BRANCH  22  24
ATOM     24  O   UNL     1      -4.507  -0.584  -2.955  1.00  0.00    -0.497 OA
ATOM     25  C   UNL     1      -5.842  -0.704  -3.433  1.00  0.00     0.278 C 
ENDBRANCH  22  24
ENDBRANCH   1  14
TORSDOF 5
