REMARK SMILES Cc1cccc([C@H](C)c2c[nH]cn2)c1C
REMARK SMILES IDX 7 1 8 2 6 3 1 4 2 5 3 6 14 7 4 8 15 9 5 10 9 11 10 12 13 13
REMARK SMILES IDX 11 14 12 15
REMARK H PARENT 11 16
REMARK Flexibility Score: inf
ROOT
ATOM      1  C   UNL     1       1.194  -0.310  -0.880  1.00  0.00     0.067 C 
ATOM      2  C   UNL     1       1.675  -1.596  -1.555  1.00  0.00     0.019 C 
ENDROOT
BRANCH   1   3
ATOM      3  C   UNL     1      -0.150  -0.489  -0.170  1.00  0.00    -0.036 A 
ATOM      4  C   UNL     1      -3.791   0.774  -0.189  1.00  0.00     0.044 C 
ATOM      5  C   UNL     1      -2.528   0.027   0.149  1.00  0.00    -0.048 A 
ATOM      6  C   UNL     1      -2.580  -0.921   1.184  1.00  0.00     0.004 A 
ATOM      7  C   UNL     1      -1.308   0.251  -0.539  1.00  0.00    -0.044 A 
ATOM      8  C   UNL     1      -1.451  -1.645   1.544  1.00  0.00     0.001 A 
ATOM      9  C   UNL     1      -1.233   1.261  -1.659  1.00  0.00     0.045 C 
ATOM     10  C   UNL     1      -0.252  -1.432   0.874  1.00  0.00     0.005 A 
ENDBRANCH   1   3
BRANCH   1  11
ATOM     11  C   UNL     1       2.142   0.227   0.157  1.00  0.00     0.065 A 
ATOM     12  C   UNL     1       2.234   1.514   0.655  1.00  0.00     0.108 A 
ATOM     13  N   UNL     1       3.104  -0.570   0.748  1.00  0.00    -0.241 NA
ATOM     14  N   UNL     1       3.246   1.479   1.572  1.00  0.00    -0.351 N 
ATOM     15  C   UNL     1       3.741   0.207   1.592  1.00  0.00     0.196 A 
ATOM     16  H   UNL     1       3.572   2.250   2.138  1.00  0.00     0.167 HD
ENDBRANCH   1  11
TORSDOF 2
