REMARK SMILES Cc1cc(C#N)cc(C)c1Oc1nc(Nc2ccc(C#N)cc2)nc(N)c1Br
REMARK SMILES IDX 12 1 13 2 14 3 24 4 25 5 27 6 28 7 11 8 10 9 1 10 2 11 3 12
REMARK SMILES IDX 4 13 8 14 7 15 9 16 5 17 6 18 15 19 16 21 17 22 23 23 18 24
REMARK SMILES IDX 22 25 19 26 20 27 21 28 26 29
REMARK H PARENT 15 20 26 30 26 31
REMARK Flexibility Score: inf
ROOT
ATOM      1  C   UNL     1      -0.265  -0.437  -1.258  1.00  0.00     0.240 A 
ATOM      2  N   UNL     1       0.876  -0.467  -0.539  1.00  0.00    -0.176 NA
ATOM      3  C   UNL     1       1.515  -1.633  -0.431  1.00  0.00     0.232 A 
ATOM      4  N   UNL     1       1.084  -2.756  -1.017  1.00  0.00    -0.194 NA
ATOM      5  C   UNL     1      -0.031  -2.704  -1.762  1.00  0.00     0.147 A 
ATOM      6  C   UNL     1      -0.761  -1.536  -1.930  1.00  0.00     0.122 A 
ATOM      7  Br  UNL     1      -2.288  -1.513  -3.049  1.00  0.00    -0.041 Br
ENDROOT
BRANCH   1   8
ATOM      8  O   UNL     1      -0.822   0.821  -1.318  1.00  0.00    -0.437 OA
BRANCH   8   9
ATOM      9  C   UNL     1      -2.095   1.006  -0.816  1.00  0.00     0.135 A 
ATOM     10  C   UNL     1      -1.625  -0.127   1.441  1.00  0.00     0.048 C 
ATOM     11  C   UNL     1      -2.524   0.560   0.450  1.00  0.00    -0.007 A 
ATOM     12  C   UNL     1      -3.861   0.787   0.828  1.00  0.00     0.026 A 
ATOM     13  C   UNL     1      -4.737   1.496  -0.001  1.00  0.00     0.053 A 
ATOM     14  C   UNL     1      -2.960   1.767  -1.634  1.00  0.00    -0.007 A 
ATOM     15  C   UNL     1      -4.279   2.000  -1.219  1.00  0.00     0.026 A 
ATOM     16  C   UNL     1      -2.478   2.373  -2.926  1.00  0.00     0.048 C 
BRANCH  13  17
ATOM     17  C   UNL     1      -6.091   1.725   0.411  1.00  0.00     0.099 C 
ATOM     18  N   UNL     1      -7.188   1.907   0.743  1.00  0.00    -0.192 NA
ENDBRANCH  13  17
ENDBRANCH   8   9
ENDBRANCH   1   8
BRANCH   3  19
ATOM     19  N   UNL     1       2.680  -1.771   0.316  1.00  0.00    -0.324 N 
ATOM     20  H   UNL     1       2.990  -2.731   0.256  1.00  0.00     0.170 HD
BRANCH  19  21
ATOM     21  C   UNL     1       3.457  -0.894   1.079  1.00  0.00     0.041 A 
ATOM     22  C   UNL     1       3.169   0.465   1.241  1.00  0.00     0.027 A 
ATOM     23  C   UNL     1       4.595  -1.400   1.729  1.00  0.00     0.027 A 
ATOM     24  C   UNL     1       3.985   1.294   2.023  1.00  0.00     0.021 A 
ATOM     25  C   UNL     1       5.416  -0.580   2.512  1.00  0.00     0.021 A 
ATOM     26  C   UNL     1       5.111   0.773   2.661  1.00  0.00     0.052 A 
BRANCH  26  27
ATOM     27  C   UNL     1       5.946   1.620   3.461  1.00  0.00     0.099 C 
ATOM     28  N   UNL     1       6.624   2.302   4.111  1.00  0.00    -0.192 NA
ENDBRANCH  26  27
ENDBRANCH  19  21
ENDBRANCH   3  19
BRANCH   5  29
ATOM     29  N   UNL     1      -0.408  -3.914  -2.373  1.00  0.00    -0.382 N 
ATOM     30  H   UNL     1      -1.353  -4.159  -2.087  1.00  0.00     0.158 HD
ATOM     31  H   UNL     1      -0.431  -3.788  -3.383  1.00  0.00     0.158 HD
ENDBRANCH   5  29
TORSDOF 7
