REMARK SMILES CN(C)CCOC(c1ccc(Cl)cc1)c1ccccn1
REMARK SMILES IDX 5 1 4 2 2 3 1 4 3 5 6 6 7 7 8 8 9 9 14 10 10 11 13 12 11 13
REMARK SMILES IDX 12 14 15 15 16 16 20 17 17 18 19 19 18 20
REMARK H PARENT
REMARK Flexibility Score: inf
ROOT
ATOM      1  C   UNL     1      -1.357  -0.025   0.764  1.00  0.00     0.177 C 
ENDROOT
BRANCH   1   2
ATOM      2  C   UNL     1      -2.684  -0.623   0.273  1.00  0.00     0.112 C 
BRANCH   2   3
ATOM      3  N   UNL     1      -3.873  -0.140   1.005  1.00  0.00    -0.307 NA
ATOM      4  C   UNL     1      -5.088  -0.547   0.294  1.00  0.00     0.105 C 
ATOM      5  C   UNL     1      -3.912  -0.651   2.376  1.00  0.00     0.105 C 
ENDBRANCH   2   3
ENDBRANCH   1   2
BRANCH   1   6
ATOM      6  O   UNL     1      -0.298  -0.554  -0.039  1.00  0.00    -0.366 OA
BRANCH   6   7
ATOM      7  C   UNL     1       0.980   0.026   0.275  1.00  0.00     0.197 C 
BRANCH   7   8
ATOM      8  C   UNL     1       2.039  -0.953  -0.216  1.00  0.00    -0.013 A 
ATOM      9  C   UNL     1       2.102  -1.319  -1.572  1.00  0.00     0.008 A 
ATOM     10  C   UNL     1       2.973  -1.506   0.676  1.00  0.00     0.008 A 
ATOM     11  C   UNL     1       3.076  -2.208  -2.028  1.00  0.00     0.021 A 
ATOM     12  C   UNL     1       3.948  -2.397   0.219  1.00  0.00     0.021 A 
ATOM     13  C   UNL     1       3.996  -2.742  -1.130  1.00  0.00     0.041 A 
ATOM     14  Cl  UNL     1       5.200  -3.839  -1.688  1.00  0.00    -0.084 Cl
ENDBRANCH   7   8
BRANCH   7  15
ATOM     15  C   UNL     1       1.178   1.428  -0.314  1.00  0.00     0.074 A 
ATOM     16  C   UNL     1       2.148   2.270   0.235  1.00  0.00     0.027 A 
ATOM     17  N   UNL     1       0.417   1.809  -1.376  1.00  0.00    -0.258 NA
ATOM     18  C   UNL     1       2.334   3.537  -0.311  1.00  0.00     0.004 A 
ATOM     19  C   UNL     1       0.620   3.044  -1.884  1.00  0.00     0.111 A 
ATOM     20  C   UNL     1       1.555   3.935  -1.391  1.00  0.00     0.020 A 
ENDBRANCH   7  15
ENDBRANCH   6   7
ENDBRANCH   1   6
TORSDOF 6
