REMARK SMILES Cc1[nH]c2ccc(F)cc2c1-c1nc2c3cccnc3c3ncccc3c2[nH]1
REMARK SMILES IDX 12 1 13 2 14 3 27 4 28 5 26 6 25 7 24 8 23 9 22 10 21 11
REMARK SMILES IDX 20 12 15 13 16 14 17 15 18 16 19 17 11 19 1 20 2 21 3 22
REMARK SMILES IDX 10 23 4 24 9 26 5 27 7 28 6 29 8 30
REMARK H PARENT 28 18 3 25
REMARK Flexibility Score: inf
ROOT
ATOM      1  C   UNL     1       0.671   0.342   0.070  1.00  0.00     0.140 A 
ATOM      2  N   UNL     1       0.144  -0.837  -0.185  1.00  0.00    -0.228 NA
ATOM      3  C   UNL     1      -1.221  -0.669  -0.113  1.00  0.00     0.099 A 
ATOM      4  C   UNL     1      -1.535   0.645   0.195  1.00  0.00     0.076 A 
ATOM      5  N   UNL     1      -0.314   1.264   0.305  1.00  0.00    -0.337 N 
ATOM      6  C   UNL     1      -2.866   1.085   0.329  1.00  0.00     0.028 A 
ATOM      7  C   UNL     1      -3.149   2.428   0.643  1.00  0.00     0.014 A 
ATOM      8  C   UNL     1      -4.470   2.826   0.767  1.00  0.00     0.021 A 
ATOM      9  C   UNL     1      -5.451   1.874   0.575  1.00  0.00     0.112 A 
ATOM     10  N   UNL     1      -5.200   0.581   0.273  1.00  0.00    -0.254 NA
ATOM     11  C   UNL     1      -3.919   0.152   0.143  1.00  0.00     0.099 A 
ATOM     12  C   UNL     1      -3.623  -1.189  -0.171  1.00  0.00     0.099 A 
ATOM     13  C   UNL     1      -2.272  -1.593  -0.297  1.00  0.00     0.030 A 
ATOM     14  C   UNL     1      -1.955  -2.927  -0.610  1.00  0.00     0.014 A 
ATOM     15  C   UNL     1      -2.979  -3.841  -0.793  1.00  0.00     0.021 A 
ATOM     16  C   UNL     1      -4.275  -3.387  -0.656  1.00  0.00     0.112 A 
ATOM     17  N   UNL     1      -4.604  -2.109  -0.356  1.00  0.00    -0.254 NA
ATOM     18  H   UNL     1      -0.161   2.234   0.523  1.00  0.00     0.168 HD
ENDROOT
BRANCH   1  19
ATOM     19  C   UNL     1       2.209   0.627   0.097  1.00  0.00     0.046 A 
ATOM     20  C   UNL     1       2.296   3.192   0.677  1.00  0.00     0.065 C 
ATOM     21  C   UNL     1       2.822   1.842   0.357  1.00  0.00     0.024 A 
ATOM     22  N   UNL     1       4.180   1.627   0.274  1.00  0.00    -0.358 N 
ATOM     23  C   UNL     1       3.230  -0.342  -0.149  1.00  0.00     0.014 A 
ATOM     24  C   UNL     1       4.455   0.315  -0.031  1.00  0.00     0.047 A 
ATOM     25  H   UNL     1       4.890   2.333   0.417  1.00  0.00     0.166 HD
ATOM     26  C   UNL     1       3.235  -1.717  -0.462  1.00  0.00     0.050 A 
ATOM     27  C   UNL     1       5.687  -0.328  -0.207  1.00  0.00     0.030 A 
ATOM     28  C   UNL     1       4.456  -2.365  -0.639  1.00  0.00     0.123 A 
ATOM     29  C   UNL     1       5.664  -1.690  -0.516  1.00  0.00     0.041 A 
ATOM     30  F   UNL     1       4.467  -3.672  -0.937  1.00  0.00    -0.207 F 
ENDBRANCH   1  19
TORSDOF 1
