REMARK SMILES CC1=NN(c2ccc(C)c(C)c2)C(=O)/C1=N\Nc1cccc(-c2cccc(C(=O)O)c2)c1O
REMARK SMILES IDX 18 1 19 2 20 3 21 4 22 5 32 6 17 7 16 9 1 10 2 11 3 12 15 13
REMARK SMILES IDX 4 14 13 15 14 16 5 17 6 18 12 19 7 20 10 21 8 22 11 23 9 24
REMARK SMILES IDX 33 25 23 27 24 28 31 29 25 30 27 31 26 32 28 33 29 34 30 35
REMARK H PARENT 17 8 33 26 30 36
REMARK Flexibility Score: inf
ROOT
ATOM      1  C   UNL     1       2.129  -0.719  -1.655  1.00  0.00     0.099 A 
ATOM      2  C   UNL     1       2.494  -0.710  -3.005  1.00  0.00     0.031 A 
ATOM      3  C   UNL     1       3.834  -0.600  -3.379  1.00  0.00     0.003 A 
ATOM      4  C   UNL     1       4.830  -0.520  -2.404  1.00  0.00     0.013 A 
ATOM      5  C   UNL     1       4.516  -0.576  -1.035  1.00  0.00     0.026 A 
ATOM      6  C   UNL     1       3.157  -0.702  -0.690  1.00  0.00     0.148 A 
ENDROOT
BRANCH   1   7
ATOM      7  N   UNL     1       0.782  -0.838  -1.231  1.00  0.00    -0.274 N 
ATOM      8  H   UNL     1       0.614  -0.322  -0.355  1.00  0.00     0.190 HD
BRANCH   7   9
ATOM      9  N   UNL     1      -0.199  -0.857  -2.178  1.00  0.00    -0.168 NA
ATOM     10  C   UNL     1      -2.517  -0.910  -4.085  1.00  0.00     0.071 C 
ATOM     11  C   UNL     1      -2.598  -0.605  -2.637  1.00  0.00     0.092 C 
ATOM     12  N   UNL     1      -3.665  -0.320  -1.952  1.00  0.00    -0.167 NA
ATOM     13  C   UNL     1      -1.399  -0.597  -1.765  1.00  0.00     0.173 C 
ATOM     14  N   UNL     1      -3.266  -0.105  -0.619  1.00  0.00    -0.195 N 
ATOM     15  C   UNL     1      -1.900  -0.243  -0.400  1.00  0.00     0.301 C 
ATOM     16  O   UNL     1      -1.173  -0.125   0.565  1.00  0.00    -0.265 OA
BRANCH  14  17
ATOM     17  C   UNL     1      -4.261   0.235   0.333  1.00  0.00     0.069 A 
ATOM     18  C   UNL     1      -3.945   0.470   1.674  1.00  0.00     0.029 A 
ATOM     19  C   UNL     1      -5.606   0.344  -0.054  1.00  0.00     0.032 A 
ATOM     20  C   UNL     1      -4.943   0.800   2.599  1.00  0.00     0.006 A 
ATOM     21  C   UNL     1      -6.620   0.684   0.862  1.00  0.00    -0.046 A 
ATOM     22  C   UNL     1      -6.284   0.898   2.210  1.00  0.00    -0.048 A 
ATOM     23  C   UNL     1      -8.042   0.779   0.379  1.00  0.00     0.044 C 
ATOM     24  C   UNL     1      -7.323   1.264   3.234  1.00  0.00     0.044 C 
ENDBRANCH  14  17
ENDBRANCH   7   9
ENDBRANCH   1   7
BRANCH   6  25
ATOM     25  O   UNL     1       2.817  -0.855   0.636  1.00  0.00    -0.505 OA
ATOM     26  H   UNL     1       2.029  -1.428   0.649  1.00  0.00     0.293 HD
ENDBRANCH   6  25
BRANCH   5  27
ATOM     27  C   UNL     1       5.592  -0.522  -0.029  1.00  0.00    -0.014 A 
ATOM     28  C   UNL     1       6.652  -1.446  -0.056  1.00  0.00     0.009 A 
ATOM     29  C   UNL     1       5.596   0.460   0.976  1.00  0.00     0.024 A 
ATOM     30  C   UNL     1       7.681  -1.395   0.888  1.00  0.00     0.002 A 
ATOM     31  C   UNL     1       6.626   0.518   1.926  1.00  0.00     0.060 A 
ATOM     32  C   UNL     1       7.669  -0.414   1.877  1.00  0.00     0.016 A 
BRANCH  31  33
ATOM     33  C   UNL     1       6.653   1.543   2.996  1.00  0.00     0.335 C 
ATOM     34  O   UNL     1       7.502   1.645   3.863  1.00  0.00    -0.246 OA
BRANCH  33  35
ATOM     35  O   UNL     1       5.620   2.401   2.931  1.00  0.00    -0.478 OA
ATOM     36  H   UNL     1       5.766   3.004   3.690  1.00  0.00     0.297 HD
ENDBRANCH  33  35
ENDBRANCH  31  33
ENDBRANCH   5  27
TORSDOF 7
