REMARK SMILES Cc1cc(C)nc(NS(=O)(=O)c2ccc(N)cc2)n1
REMARK SMILES IDX 9 1 10 2 11 3 8 4 7 6 1 7 2 8 3 9 19 10 4 11 5 12 6 13 12 14
REMARK SMILES IDX 13 15 18 16 14 17 17 18 15 19 16 20
REMARK H PARENT 8 5 16 21 16 22
REMARK Flexibility Score: inf
ROOT
ATOM      1  S   UNL     1       0.209   1.012   2.452  1.00  0.00     0.264 S 
ATOM      2  O   UNL     1       0.676   0.883   3.819  1.00  0.00    -0.201 OA
ATOM      3  O   UNL     1      -0.476   2.217   2.035  1.00  0.00    -0.201 OA
ENDROOT
BRANCH   1   4
ATOM      4  N   UNL     1      -0.746  -0.316   2.173  1.00  0.00    -0.247 N 
ATOM      5  H   UNL     1      -1.229  -0.655   2.996  1.00  0.00     0.183 HD
BRANCH   4   6
ATOM      6  C   UNL     1      -1.543  -0.305   1.035  1.00  0.00     0.237 A 
ATOM      7  C   UNL     1      -1.225   0.362  -2.530  1.00  0.00     0.067 C 
ATOM      8  C   UNL     1      -1.784  -0.088  -1.215  1.00  0.00     0.043 A 
ATOM      9  C   UNL     1      -3.043  -0.655  -1.146  1.00  0.00     0.047 A 
ATOM     10  N   UNL     1      -1.010   0.074  -0.125  1.00  0.00    -0.218 NA
ATOM     11  C   UNL     1      -3.474  -1.062   0.103  1.00  0.00     0.043 A 
ATOM     12  C   UNL     1      -4.818  -1.705   0.266  1.00  0.00     0.067 C 
ATOM     13  N   UNL     1      -2.719  -0.912   1.210  1.00  0.00    -0.218 NA
ENDBRANCH   4   6
ENDBRANCH   1   4
BRANCH   1  14
ATOM     14  C   UNL     1       1.627   0.749   1.416  1.00  0.00     0.088 A 
ATOM     15  C   UNL     1       2.525  -0.272   1.732  1.00  0.00     0.024 A 
ATOM     16  C   UNL     1       1.852   1.574   0.313  1.00  0.00     0.024 A 
ATOM     17  C   UNL     1       3.654  -0.467   0.932  1.00  0.00     0.027 A 
ATOM     18  C   UNL     1       2.985   1.368  -0.479  1.00  0.00     0.027 A 
ATOM     19  C   UNL     1       3.919   0.381  -0.149  1.00  0.00     0.031 A 
BRANCH  19  20
ATOM     20  N   UNL     1       4.986   0.106  -1.013  1.00  0.00    -0.399 N 
ATOM     21  H   UNL     1       5.761  -0.376  -0.566  1.00  0.00     0.156 HD
ATOM     22  H   UNL     1       5.293   0.909  -1.552  1.00  0.00     0.156 HD
ENDBRANCH  19  20
ENDBRANCH   1  14
TORSDOF 4
