REMARK SMILES COc1ccc2c(c1)[C@]13CCCC[C@@H]1[C@H](C2)N(C)CC3
REMARK SMILES IDX 3 1 4 2 5 3 6 4 7 5 8 6 9 7 10 8 11 9 12 10 13 11 14 12
REMARK SMILES IDX 15 13 16 14 17 15 18 16 19 17 20 18 2 19 1 20
REMARK H PARENT
REMARK Flexibility Score: inf
ROOT
ATOM      1  C   UNL     1       3.028   0.346   0.028  1.00  0.00     0.119 A 
ATOM      2  C   UNL     1       3.002   0.157  -1.348  1.00  0.00     0.047 A 
ATOM      3  C   UNL     1       1.785  -0.050  -1.999  1.00  0.00     0.008 A 
ATOM      4  C   UNL     1       0.577  -0.073  -1.283  1.00  0.00    -0.042 A 
ATOM      5  C   UNL     1       0.588   0.085   0.118  1.00  0.00    -0.034 A 
ATOM      6  C   UNL     1       1.827   0.315   0.747  1.00  0.00     0.051 A 
ATOM      7  C   UNL     1      -0.733   0.098   0.916  1.00  0.00     0.001 C 
ATOM      8  C   UNL     1      -0.614  -0.496   2.347  1.00  0.00     0.012 C 
ATOM      9  C   UNL     1      -0.336  -2.001   2.355  1.00  0.00     0.001 C 
ATOM     10  C   UNL     1      -1.395  -2.771   1.574  1.00  0.00     0.000 C 
ATOM     11  C   UNL     1      -1.547  -2.232   0.154  1.00  0.00     0.006 C 
ATOM     12  C   UNL     1      -1.829  -0.715   0.165  1.00  0.00     0.017 C 
ATOM     13  C   UNL     1      -1.996  -0.083  -1.235  1.00  0.00     0.064 C 
ATOM     14  C   UNL     1      -0.701  -0.327  -2.050  1.00  0.00     0.055 C 
ATOM     15  N   UNL     1      -2.479   1.320  -1.130  1.00  0.00    -0.303 NA
ATOM     16  C   UNL     1      -2.003   2.249  -2.143  1.00  0.00     0.105 C 
ATOM     17  C   UNL     1      -2.445   1.895   0.215  1.00  0.00     0.085 C 
ATOM     18  C   UNL     1      -1.169   1.594   1.003  1.00  0.00     0.027 C 
ENDROOT
BRANCH   1  19
ATOM     19  O   UNL     1       4.142   0.572   0.790  1.00  0.00    -0.497 OA
ATOM     20  C   UNL     1       5.389   0.609   0.107  1.00  0.00     0.278 C 
ENDBRANCH   1  19
TORSDOF 1
