REMARK SMILES COc1ccnc(C[S+]([O-])c2nc3cc(OC(F)F)ccc3[nH]2)c1OC
REMARK SMILES IDX 9 1 10 2 8 3 7 4 3 5 4 6 24 7 5 8 6 9 2 10 1 11 25 12 26 13
REMARK SMILES IDX 11 14 12 15 23 16 13 17 22 18 14 20 21 21 15 22 20 23 16 24
REMARK SMILES IDX 17 25 18 26 19 27
REMARK H PARENT 23 19
REMARK Flexibility Score: inf
ROOT
ATOM      1  S   UNL     1      -0.482  -0.798   1.316  1.00  0.00     0.030 S 
ATOM      2  O   UNL     1      -0.704   0.494   2.346  1.00  0.00    -0.609 OA
ENDROOT
BRANCH   1   3
ATOM      3  C   UNL     1      -1.143  -0.404  -0.331  1.00  0.00     0.345 C 
BRANCH   3   4
ATOM      4  C   UNL     1      -2.646  -0.505  -0.324  1.00  0.00     0.136 A 
ATOM      5  C   UNL     1      -4.848   0.433  -0.643  1.00  0.00     0.164 A 
ATOM      6  C   UNL     1      -5.386  -0.815  -0.351  1.00  0.00     0.070 A 
ATOM      7  C   UNL     1      -3.454   0.597  -0.602  1.00  0.00     0.187 A 
ATOM      8  C   UNL     1      -4.515  -1.847  -0.026  1.00  0.00     0.115 A 
ATOM      9  N   UNL     1      -3.173  -1.723  -0.015  1.00  0.00    -0.252 NA
BRANCH   5  10
ATOM     10  O   UNL     1      -5.588   1.543  -0.969  1.00  0.00    -0.493 OA
ATOM     11  C   UNL     1      -6.987   1.358  -1.155  1.00  0.00     0.278 C 
ENDBRANCH   5  10
BRANCH   7  12
ATOM     12  O   UNL     1      -2.872   1.804  -0.897  1.00  0.00    -0.491 OA
ATOM     13  C   UNL     1      -2.972   2.709   0.212  1.00  0.00     0.278 C 
ENDBRANCH   7  12
ENDBRANCH   3   4
ENDBRANCH   1   3
BRANCH   1  14
ATOM     14  C   UNL     1       1.270  -0.774   0.896  1.00  0.00     0.322 A 
ATOM     15  N   UNL     1       1.776  -0.715  -0.319  1.00  0.00    -0.184 NA
ATOM     16  N   UNL     1       2.250  -0.834   1.848  1.00  0.00    -0.297 N 
ATOM     17  C   UNL     1       3.136  -0.711  -0.143  1.00  0.00     0.097 A 
ATOM     18  C   UNL     1       3.460  -0.804   1.206  1.00  0.00     0.070 A 
ATOM     19  H   UNL     1       2.086  -0.888   2.843  1.00  0.00     0.173 HD
ATOM     20  C   UNL     1       4.166  -0.634  -1.095  1.00  0.00     0.077 A 
ATOM     21  C   UNL     1       4.771  -0.841   1.674  1.00  0.00     0.032 A 
ATOM     22  C   UNL     1       5.497  -0.648  -0.656  1.00  0.00     0.128 A 
ATOM     23  C   UNL     1       5.790  -0.762   0.712  1.00  0.00     0.049 A 
BRANCH  22  24
ATOM     24  O   UNL     1       6.417  -0.571  -1.668  1.00  0.00    -0.435 OA
BRANCH  24  25
ATOM     25  C   UNL     1       7.745  -0.235  -1.304  1.00  0.00     0.542 C 
ATOM     26  F   UNL     1       8.323  -1.295  -0.696  1.00  0.00    -0.167 F 
ATOM     27  F   UNL     1       8.434  -0.025  -2.456  1.00  0.00    -0.167 F 
ENDBRANCH  24  25
ENDBRANCH  22  24
ENDBRANCH   1  14
TORSDOF 7
