REMARK SMILES NC(=O)/C(=C/n1cnc(-c2cc(C(F)(F)F)cc(C(F)(F)F)c2)n1)c1cncnc1
REMARK SMILES IDX 6 1 7 2 8 3 9 4 24 5 5 6 4 7 2 8 1 9 3 12 25 13 26 14 30 15
REMARK SMILES IDX 27 16 29 17 28 18 10 19 23 20 11 21 18 22 12 23 17 24 19 25
REMARK SMILES IDX 20 26 21 27 22 28 13 29 14 30 15 31 16 32
REMARK H PARENT 1 10 1 11
REMARK Flexibility Score: inf
ROOT
ATOM      1  N   UNL     1      -1.166   1.971   0.430  1.00  0.00    -0.227 N 
ATOM      2  C   UNL     1      -0.347   3.073   0.258  1.00  0.00     0.226 A 
ATOM      3  N   UNL     1       0.860   2.716  -0.105  1.00  0.00    -0.215 NA
ATOM      4  C   UNL     1       0.774   1.351  -0.167  1.00  0.00     0.181 A 
ATOM      5  N   UNL     1      -0.431   0.870   0.153  1.00  0.00    -0.147 NA
ENDROOT
BRANCH   1   6
ATOM      6  C   UNL     1      -2.502   2.025   0.831  1.00  0.00     0.129 C 
ATOM      7  C   UNL     1      -3.372   1.004   0.983  1.00  0.00     0.068 C 
BRANCH   7   8
ATOM      8  C   UNL     1      -4.759   1.421   1.337  1.00  0.00     0.250 C 
ATOM      9  N   UNL     1      -4.884   2.031   2.548  1.00  0.00    -0.366 N 
ATOM     10  H   UNL     1      -5.829   2.217   2.864  1.00  0.00     0.159 HD
ATOM     11  H   UNL     1      -4.150   2.021   3.243  1.00  0.00     0.159 HD
ATOM     12  O   UNL     1      -5.716   1.214   0.605  1.00  0.00    -0.269 OA
ENDBRANCH   7   8
BRANCH   7  13
ATOM     13  C   UNL     1      -3.117  -0.419   0.726  1.00  0.00     0.025 A 
ATOM     14  C   UNL     1      -2.234  -1.178   1.474  1.00  0.00     0.123 A 
ATOM     15  C   UNL     1      -3.783  -1.129  -0.257  1.00  0.00     0.123 A 
ATOM     16  N   UNL     1      -2.005  -2.495   1.281  1.00  0.00    -0.244 NA
ATOM     17  N   UNL     1      -3.594  -2.445  -0.503  1.00  0.00    -0.244 NA
ATOM     18  C   UNL     1      -2.702  -3.063   0.286  1.00  0.00     0.221 A 
ENDBRANCH   7  13
ENDBRANCH   1   6
BRANCH   4  19
ATOM     19  C   UNL     1       1.905   0.507  -0.542  1.00  0.00     0.022 A 
ATOM     20  C   UNL     1       1.778  -0.891  -0.581  1.00  0.00     0.025 A 
ATOM     21  C   UNL     1       3.140   1.082  -0.873  1.00  0.00     0.025 A 
ATOM     22  C   UNL     1       2.858  -1.711  -0.948  1.00  0.00     0.057 A 
ATOM     23  C   UNL     1       4.241   0.286  -1.230  1.00  0.00     0.057 A 
ATOM     24  C   UNL     1       4.086  -1.110  -1.269  1.00  0.00     0.026 A 
BRANCH  22  25
ATOM     25  C   UNL     1       2.690  -3.212  -0.970  1.00  0.00     0.416 C 
ATOM     26  F   UNL     1       2.643  -3.745   0.282  1.00  0.00    -0.166 F 
ATOM     27  F   UNL     1       3.706  -3.855  -1.613  1.00  0.00    -0.166 F 
ATOM     28  F   UNL     1       1.547  -3.607  -1.595  1.00  0.00    -0.166 F 
ENDBRANCH  22  25
BRANCH  23  29
ATOM     29  C   UNL     1       5.557   0.927  -1.603  1.00  0.00     0.416 C 
ATOM     30  F   UNL     1       5.626   1.228  -2.929  1.00  0.00    -0.166 F 
ATOM     31  F   UNL     1       5.792   2.093  -0.940  1.00  0.00    -0.166 F 
ATOM     32  F   UNL     1       6.629   0.128  -1.342  1.00  0.00    -0.166 F 
ENDBRANCH  23  29
ENDBRANCH   4  19
TORSDOF 6
