REMARK SMILES Cn1nnc2c(C(N)=O)ncn2c1=O
REMARK SMILES IDX 1 1 2 2 3 3 4 4 5 5 6 6 10 7 11 8 12 9 13 10 14 11 7 12 8 13
REMARK SMILES IDX 9 14
REMARK H PARENT 8 15 8 16
REMARK Flexibility Score: inf
ROOT
ATOM      1  C   UNL     1      -3.667  -0.420  -0.306  1.00  0.00     0.181 C 
ATOM      2  N   UNL     1      -2.228  -0.320  -0.184  1.00  0.00    -0.199 N 
ATOM      3  N   UNL     1      -1.566  -1.521  -0.062  1.00  0.00    -0.061 NA
ATOM      4  N   UNL     1      -0.319  -1.547   0.049  1.00  0.00    -0.111 NA
ATOM      5  C   UNL     1       0.395  -0.403   0.051  1.00  0.00     0.198 A 
ATOM      6  C   UNL     1       1.737  -0.086   0.153  1.00  0.00     0.174 A 
ATOM      7  N   UNL     1       1.913   1.296   0.094  1.00  0.00    -0.229 NA
ATOM      8  C   UNL     1       0.699   1.785  -0.039  1.00  0.00     0.211 A 
ATOM      9  N   UNL     1      -0.248   0.796  -0.069  1.00  0.00    -0.231 N 
ATOM     10  C   UNL     1      -1.616   0.920  -0.197  1.00  0.00     0.352 C 
ATOM     11  O   UNL     1      -2.119   2.030  -0.300  1.00  0.00    -0.245 OA
ENDROOT
BRANCH   6  12
ATOM     12  C   UNL     1       2.850  -1.016   0.301  1.00  0.00     0.271 C 
ATOM     13  N   UNL     1       4.067  -0.400   0.375  1.00  0.00    -0.364 N 
ATOM     14  O   UNL     1       2.742  -2.235   0.356  1.00  0.00    -0.268 OA
ATOM     15  H   UNL     1       4.119   0.611   0.326  1.00  0.00     0.160 HD
ATOM     16  H   UNL     1       4.900  -0.958   0.478  1.00  0.00     0.160 HD
ENDBRANCH   6  12
TORSDOF 1
