REMARK SMILES Cn1ncc(-c2ccc3c(=O)[nH]nc(CN)c3c2)c1-c1c(F)c(Cl)cc(OC2CC2)c1C#N
REMARK SMILES IDX 1 1 2 2 3 3 4 4 5 5 19 6 20 7 21 8 31 9 22 10 23 11 26 12
REMARK SMILES IDX 24 13 25 14 32 15 33 16 27 17 28 18 29 19 30 20 6 21 7 22
REMARK SMILES IDX 18 23 8 24 17 25 9 26 14 27 10 28 13 29 11 30 12 31 15 33
REMARK SMILES IDX 16 34
REMARK H PARENT 12 32 16 35 16 36
REMARK Flexibility Score: inf
ROOT
ATOM      1  C   UNL     1       1.315  -4.771   1.140  1.00  0.00     0.174 C 
ATOM      2  N   UNL     1       0.193  -3.971   0.704  1.00  0.00    -0.267 N 
ATOM      3  N   UNL     1      -1.047  -4.476   0.856  1.00  0.00    -0.181 NA
ATOM      4  C   UNL     1      -1.844  -3.520   0.380  1.00  0.00     0.144 A 
ATOM      5  C   UNL     1      -1.123  -2.404  -0.087  1.00  0.00     0.028 A 
ATOM      6  C   UNL     1       0.213  -2.706   0.150  1.00  0.00     0.080 A 
ENDROOT
BRANCH   6   7
ATOM      7  C   UNL     1       1.434  -1.925  -0.098  1.00  0.00     0.059 A 
ATOM      8  C   UNL     1       2.345  -2.373  -1.067  1.00  0.00     0.152 A 
ATOM      9  C   UNL     1       1.712  -0.725   0.587  1.00  0.00     0.106 A 
ATOM     10  F   UNL     1       2.095  -3.517  -1.726  1.00  0.00    -0.205 F 
ATOM     11  C   UNL     1       3.508  -1.658  -1.352  1.00  0.00     0.081 A 
ATOM     12  C   UNL     1       2.877   0.002   0.279  1.00  0.00     0.139 A 
ATOM     13  Cl  UNL     1       4.622  -2.234  -2.530  1.00  0.00    -0.081 Cl
ATOM     14  C   UNL     1       3.780  -0.472  -0.678  1.00  0.00     0.071 A 
BRANCH   9  15
ATOM     15  C   UNL     1       0.823  -0.226   1.602  1.00  0.00     0.104 C 
ATOM     16  N   UNL     1       0.087   0.172   2.406  1.00  0.00    -0.192 NA
ENDBRANCH   9  15
BRANCH  12  17
ATOM     17  O   UNL     1       3.125   1.152   0.992  1.00  0.00    -0.489 OA
BRANCH  17  18
ATOM     18  C   UNL     1       3.660   2.247   0.223  1.00  0.00     0.173 C 
ATOM     19  C   UNL     1       4.015   3.465   1.034  1.00  0.00     0.049 C 
ATOM     20  C   UNL     1       5.102   2.596   0.475  1.00  0.00     0.049 C 
ENDBRANCH  17  18
ENDBRANCH  12  17
ENDBRANCH   6   7
BRANCH   5  21
ATOM     21  C   UNL     1      -1.611  -1.172  -0.670  1.00  0.00    -0.014 A 
ATOM     22  C   UNL     1      -1.261  -0.820  -1.979  1.00  0.00     0.010 A 
ATOM     23  C   UNL     1      -2.427  -0.320   0.090  1.00  0.00     0.019 A 
ATOM     24  C   UNL     1      -1.711   0.383  -2.521  1.00  0.00     0.015 A 
ATOM     25  C   UNL     1      -2.872   0.892  -0.452  1.00  0.00     0.012 A 
ATOM     26  C   UNL     1      -2.512   1.237  -1.753  1.00  0.00     0.050 A 
ATOM     27  C   UNL     1      -3.717   1.855   0.299  1.00  0.00     0.082 C 
ATOM     28  C   UNL     1      -2.980   2.514  -2.314  1.00  0.00     0.272 C 
ATOM     29  N   UNL     1      -4.129   2.980  -0.216  1.00  0.00    -0.176 NA
ATOM     30  O   UNL     1      -2.679   2.858  -3.451  1.00  0.00    -0.267 OA
ATOM     31  N   UNL     1      -3.764   3.284  -1.491  1.00  0.00    -0.243 N 
ATOM     32  H   UNL     1      -4.097   4.169  -1.860  1.00  0.00     0.194 HD
BRANCH  27  33
ATOM     33  C   UNL     1      -4.121   1.505   1.736  1.00  0.00     0.137 C 
BRANCH  33  34
ATOM     34  N   UNL     1      -4.979   2.550   2.309  1.00  0.00    -0.325 NA
ATOM     35  H   UNL     1      -5.749   2.710   1.655  1.00  0.00     0.119 HD
ATOM     36  H   UNL     1      -4.458   3.429   2.271  1.00  0.00     0.119 HD
ENDBRANCH  33  34
ENDBRANCH  27  33
ENDBRANCH   5  21
TORSDOF 7
