REMARK SMILES CC(=O)Oc1cc2c(s1)CCN(C(C(=O)C1CC1)c1ccccc1F)C2
REMARK SMILES IDX 5 1 6 2 7 3 8 4 9 5 10 6 11 7 12 8 26 9 4 10 2 11 1 12 3 13
REMARK SMILES IDX 13 14 14 15 15 16 16 17 17 18 18 19 19 20 20 21 24 22 21 23
REMARK SMILES IDX 23 24 25 25 22 26
REMARK H PARENT
REMARK Flexibility Score: inf
ROOT
ATOM      1  C   UNL     1       4.166   0.260   0.162  1.00  0.00     0.184 A 
ATOM      2  C   UNL     1       2.992   0.373   0.889  1.00  0.00     0.065 A 
ATOM      3  C   UNL     1       1.814   0.219   0.092  1.00  0.00    -0.016 A 
ATOM      4  C   UNL     1       2.142  -0.006  -1.226  1.00  0.00     0.014 A 
ATOM      5  S   UNL     1       3.812  -0.048  -1.497  1.00  0.00    -0.103 S 
ATOM      6  C   UNL     1       1.130  -0.233  -2.302  1.00  0.00     0.062 C 
ATOM      7  C   UNL     1      -0.277   0.146  -1.782  1.00  0.00     0.091 C 
ATOM      8  N   UNL     1      -0.497  -0.356  -0.410  1.00  0.00    -0.285 NA
ATOM      9  C   UNL     1       0.389   0.313   0.565  1.00  0.00     0.122 C 
ENDROOT
BRANCH   1  10
ATOM     10  O   UNL     1       5.446   0.325   0.505  1.00  0.00    -0.416 OA
BRANCH  10  11
ATOM     11  C   UNL     1       5.848   0.680   1.742  1.00  0.00     0.308 C 
ATOM     12  C   UNL     1       7.345   0.593   1.814  1.00  0.00     0.139 C 
ATOM     13  O   UNL     1       5.156   1.031   2.689  1.00  0.00    -0.252 OA
ENDBRANCH  10  11
ENDBRANCH   1  10
BRANCH   8  14
ATOM     14  C   UNL     1      -1.915  -0.360   0.039  1.00  0.00     0.158 C 
BRANCH  14  15
ATOM     15  C   UNL     1      -2.696  -1.433  -0.758  1.00  0.00     0.157 C 
ATOM     16  O   UNL     1      -3.618  -1.207  -1.536  1.00  0.00    -0.297 OA
BRANCH  15  17
ATOM     17  C   UNL     1      -2.247  -2.848  -0.527  1.00  0.00     0.058 C 
ATOM     18  C   UNL     1      -3.246  -3.980  -0.564  1.00  0.00     0.012 C 
ATOM     19  C   UNL     1      -2.243  -3.832  -1.673  1.00  0.00     0.012 C 
ENDBRANCH  15  17
ENDBRANCH  14  15
BRANCH  14  20
ATOM     20  C   UNL     1      -2.595   1.000   0.114  1.00  0.00     0.013 A 
ATOM     21  C   UNL     1      -3.104   1.671  -1.011  1.00  0.00     0.009 A 
ATOM     22  C   UNL     1      -2.718   1.636   1.358  1.00  0.00     0.128 A 
ATOM     23  C   UNL     1      -3.713   2.924  -0.887  1.00  0.00     0.001 A 
ATOM     24  C   UNL     1      -3.320   2.885   1.490  1.00  0.00     0.039 A 
ATOM     25  F   UNL     1      -2.237   1.043   2.460  1.00  0.00    -0.207 F 
ATOM     26  C   UNL     1      -3.822   3.532   0.363  1.00  0.00     0.003 A 
ENDBRANCH  14  20
ENDBRANCH   8  14
TORSDOF 6
