REMARK SMILES Cc1nc(-c2cnc(NC(C)C)n(C)c2=O)ccc1Oc1ccnc(-c2cnn(C)c2)c1
REMARK SMILES IDX 4 1 17 2 18 3 19 4 2 5 1 6 3 7 5 8 9 9 8 10 7 12 13 13 6 14
REMARK SMILES IDX 15 15 14 16 16 17 10 18 11 19 12 20 20 21 21 22 22 23 32 24
REMARK SMILES IDX 23 25 25 26 24 27 26 28 31 29 27 30 29 31 28 32 30 33
REMARK H PARENT 9 11
REMARK Flexibility Score: inf
ROOT
ATOM      1  C   UNL     1      -0.847  -1.242   0.041  1.00  0.00     0.078 A 
ATOM      2  C   UNL     1      -0.362  -1.787  -1.147  1.00  0.00     0.033 A 
ATOM      3  C   UNL     1       0.852  -2.469  -1.119  1.00  0.00     0.051 A 
ATOM      4  C   UNL     1       1.540  -2.585   0.086  1.00  0.00     0.148 A 
ATOM      5  C   UNL     1       0.977  -2.045   1.244  1.00  0.00     0.081 A 
ATOM      6  C   UNL     1       1.637  -2.205   2.584  1.00  0.00     0.071 C 
ATOM      7  N   UNL     1      -0.187  -1.346   1.223  1.00  0.00    -0.249 NA
ENDROOT
BRANCH   1   8
ATOM      8  C   UNL     1      -2.100  -0.490   0.066  1.00  0.00     0.084 C 
ATOM      9  N   UNL     1      -5.473   1.880   0.126  1.00  0.00    -0.353 N 
ATOM     10  C   UNL     1      -4.375   1.056   0.146  1.00  0.00     0.205 C 
ATOM     11  H   UNL     1      -5.138   2.806  -0.146  1.00  0.00     0.163 HD
ATOM     12  N   UNL     1      -3.291   1.548  -0.389  1.00  0.00    -0.222 NA
ATOM     13  N   UNL     1      -4.421  -0.203   0.717  1.00  0.00    -0.281 N 
ATOM     14  C   UNL     1      -2.167   0.772  -0.379  1.00  0.00     0.131 C 
ATOM     15  C   UNL     1      -3.348  -1.077   0.602  1.00  0.00     0.264 C 
ATOM     16  C   UNL     1      -5.584  -0.693   1.426  1.00  0.00     0.157 C 
ATOM     17  O   UNL     1      -3.416  -2.271   0.884  1.00  0.00    -0.268 OA
BRANCH   9  18
ATOM     18  C   UNL     1      -6.658   1.548  -0.668  1.00  0.00     0.076 C 
ATOM     19  C   UNL     1      -6.376   1.728  -2.158  1.00  0.00     0.030 C 
ATOM     20  C   UNL     1      -7.803   2.455  -0.224  1.00  0.00     0.030 C 
ENDBRANCH   9  18
ENDBRANCH   1   8
BRANCH   4  21
ATOM     21  O   UNL     1       2.706  -3.304   0.115  1.00  0.00    -0.455 OA
BRANCH  21  22
ATOM     22  C   UNL     1       3.897  -2.609   0.058  1.00  0.00     0.131 A 
ATOM     23  C   UNL     1       5.029  -3.354   0.379  1.00  0.00     0.067 A 
ATOM     24  C   UNL     1       4.037  -1.268  -0.300  1.00  0.00     0.076 A 
ATOM     25  C   UNL     1       6.257  -2.722   0.348  1.00  0.00     0.115 A 
ATOM     26  C   UNL     1       5.311  -0.713  -0.309  1.00  0.00     0.077 A 
ATOM     27  N   UNL     1       6.423  -1.426   0.013  1.00  0.00    -0.256 NA
BRANCH  26  28
ATOM     28  C   UNL     1       5.533   0.678  -0.685  1.00  0.00     0.038 A 
ATOM     29  C   UNL     1       6.750   1.327  -0.606  1.00  0.00     0.118 A 
ATOM     30  C   UNL     1       4.661   1.670  -1.191  1.00  0.00     0.145 A 
ATOM     31  N   UNL     1       6.544   2.598  -1.050  1.00  0.00    -0.275 N 
ATOM     32  N   UNL     1       5.273   2.837  -1.417  1.00  0.00    -0.181 NA
ATOM     33  C   UNL     1       7.531   3.643  -1.169  1.00  0.00     0.173 C 
ENDBRANCH  26  28
ENDBRANCH  21  22
ENDBRANCH   4  21
TORSDOF 5
