REMARK SMILES Cc1ccc(/C(=C\CN2CCCC2)c2cccc(/C=C/C(=O)O)n2)cc1
REMARK SMILES IDX 14 1 15 2 16 3 17 4 18 5 24 6 6 7 7 8 5 9 1 10 2 11 3 12
REMARK SMILES IDX 26 13 4 14 25 15 8 16 9 17 10 18 13 19 11 20 12 21 19 22
REMARK SMILES IDX 20 23 21 24 22 25 23 26
REMARK H PARENT 23 27
REMARK Flexibility Score: inf
ROOT
ATOM      1  C   UNL     1       1.854   0.754   0.457  1.00  0.00     0.071 A 
ATOM      2  C   UNL     1       2.343   2.054   0.342  1.00  0.00     0.029 A 
ATOM      3  C   UNL     1       3.719   2.268   0.357  1.00  0.00     0.004 A 
ATOM      4  C   UNL     1       4.575   1.182   0.486  1.00  0.00     0.028 A 
ATOM      5  C   UNL     1       4.026  -0.088   0.597  1.00  0.00     0.064 A 
ATOM      6  N   UNL     1       2.691  -0.307   0.585  1.00  0.00    -0.248 NA
ENDROOT
BRANCH   1   7
ATOM      7  C   UNL     1       0.381   0.475   0.446  1.00  0.00     0.005 C 
ATOM      8  C   UNL     1      -0.057  -0.799   0.587  1.00  0.00    -0.001 C 
BRANCH   7   9
ATOM      9  C   UNL     1      -0.640   1.536   0.285  1.00  0.00    -0.016 A 
ATOM     10  C   UNL     1      -3.592   4.643  -0.185  1.00  0.00     0.044 C 
ATOM     11  C   UNL     1      -2.582   3.546  -0.022  1.00  0.00    -0.051 A 
ATOM     12  C   UNL     1      -2.165   3.153   1.256  1.00  0.00     0.004 A 
ATOM     13  C   UNL     1      -2.005   2.941  -1.145  1.00  0.00     0.004 A 
ATOM     14  C   UNL     1      -1.203   2.151   1.410  1.00  0.00     0.009 A 
ATOM     15  C   UNL     1      -1.043   1.939  -0.993  1.00  0.00     0.009 A 
ENDBRANCH   7   9
BRANCH   8  16
ATOM     16  C   UNL     1      -1.474  -1.307   0.610  1.00  0.00     0.112 C 
BRANCH  16  17
ATOM     17  N   UNL     1      -1.659  -2.425  -0.331  1.00  0.00    -0.300 NA
ATOM     18  C   UNL     1      -2.978  -3.052  -0.155  1.00  0.00     0.085 C 
ATOM     19  C   UNL     1      -1.669  -1.982  -1.734  1.00  0.00     0.085 C 
ATOM     20  C   UNL     1      -3.952  -2.224  -0.980  1.00  0.00     0.017 C 
ATOM     21  C   UNL     1      -3.092  -1.525  -2.024  1.00  0.00     0.017 C 
ENDBRANCH  16  17
ENDBRANCH   8  16
ENDBRANCH   1   7
BRANCH   5  22
ATOM     22  C   UNL     1       4.898  -1.260   0.734  1.00  0.00     0.036 C 
ATOM     23  C   UNL     1       4.438  -2.517   0.837  1.00  0.00     0.095 C 
BRANCH  23  24
ATOM     24  C   UNL     1       5.307  -3.690   0.976  1.00  0.00     0.328 C 
ATOM     25  O   UNL     1       4.914  -4.838   1.077  1.00  0.00    -0.247 OA
BRANCH  24  26
ATOM     26  O   UNL     1       6.618  -3.399   0.985  1.00  0.00    -0.478 OA
ATOM     27  H   UNL     1       7.041  -4.277   1.082  1.00  0.00     0.297 HD
ENDBRANCH  24  26
ENDBRANCH  23  24
ENDBRANCH   5  22
TORSDOF 7
