REMARK SMILES COc1ccc(CN2CCNCC2)c(OC)c1OC
REMARK SMILES IDX 3 1 4 2 5 3 6 4 14 5 17 6 2 7 1 8 18 9 19 10 15 11 16 12
REMARK SMILES IDX 7 13 8 14 9 15 13 16 10 17 12 18 11 19
REMARK H PARENT 11 20
REMARK Flexibility Score: inf
ROOT
ATOM      1  C   UNL     1       2.720   1.091   0.017  1.00  0.00     0.164 A 
ATOM      2  C   UNL     1       1.700   2.031   0.197  1.00  0.00     0.051 A 
ATOM      3  C   UNL     1       0.447   1.637   0.673  1.00  0.00     0.013 A 
ATOM      4  C   UNL     1       0.177   0.295   0.974  1.00  0.00     0.012 A 
ATOM      5  C   UNL     1       1.184  -0.661   0.756  1.00  0.00     0.169 A 
ATOM      6  C   UNL     1       2.451  -0.269   0.275  1.00  0.00     0.203 A 
ENDROOT
BRANCH   1   7
ATOM      7  O   UNL     1       3.989   1.416  -0.388  1.00  0.00    -0.493 OA
ATOM      8  C   UNL     1       4.338   2.794  -0.423  1.00  0.00     0.278 C 
ENDBRANCH   1   7
BRANCH   6   9
ATOM      9  O   UNL     1       3.414  -1.248   0.178  1.00  0.00    -0.490 OA
ATOM     10  C   UNL     1       4.085  -1.279  -1.080  1.00  0.00     0.278 C 
ENDBRANCH   6   9
BRANCH   5  11
ATOM     11  O   UNL     1       0.884  -1.961   1.090  1.00  0.00    -0.492 OA
ATOM     12  C   UNL     1       1.068  -2.876   0.012  1.00  0.00     0.278 C 
ENDBRANCH   5  11
BRANCH   4  13
ATOM     13  C   UNL     1      -1.184  -0.078   1.526  1.00  0.00     0.124 C 
BRANCH  13  14
ATOM     14  N   UNL     1      -2.286   0.231   0.596  1.00  0.00    -0.296 NA
ATOM     15  C   UNL     1      -3.592   0.087   1.267  1.00  0.00     0.100 C 
ATOM     16  C   UNL     1      -2.247  -0.644  -0.599  1.00  0.00     0.100 C 
ATOM     17  C   UNL     1      -4.776   0.452   0.335  1.00  0.00     0.096 C 
ATOM     18  C   UNL     1      -3.561  -0.625  -1.425  1.00  0.00     0.096 C 
ATOM     19  N   UNL     1      -4.428   0.520  -1.099  1.00  0.00    -0.314 NA
ATOM     20  H   UNL     1      -3.837   1.350  -1.201  1.00  0.00     0.122 HD
ENDBRANCH  13  14
ENDBRANCH   4  13
TORSDOF 5
