REMARK SMILES C=CC1=C(C(=O)O)N2C(=O)[C@@H](NC(=O)/C(=N\O)c3csc(N)n3)[C@H]2SC1
REMARK SMILES IDX 12 1 13 2 14 3 11 5 3 6 4 7 26 8 8 9 25 10 9 11 24 12 10 13
REMARK SMILES IDX 2 14 1 15 5 16 6 17 7 18 15 20 16 21 18 22 19 23 23 24 20 25
REMARK SMILES IDX 21 26 22 27 17 30
REMARK H PARENT 12 4 7 19 22 28 22 29 17 31
REMARK Flexibility Score: inf
ROOT
ATOM      1  N   UNL     1       1.086   0.130  -0.808  1.00  0.00    -0.336 N 
ATOM      2  C   UNL     1       2.124  -0.279   0.002  1.00  0.00     0.276 C 
ATOM      3  O   UNL     1       2.445  -1.449   0.162  1.00  0.00    -0.267 OA
ATOM      4  H   UNL     1       0.785   1.093  -0.663  1.00  0.00     0.164 HD
ENDROOT
BRANCH   1   5
ATOM      5  C   UNL     1       0.196  -0.852  -1.477  1.00  0.00     0.206 C 
ATOM      6  C   UNL     1      -3.784  -0.994  -0.100  1.00  0.00    -0.007 C 
ATOM      7  C   UNL     1      -3.198  -0.545  -1.239  1.00  0.00     0.135 C 
ATOM      8  C   UNL     1      -2.965  -1.537   1.070  1.00  0.00     0.109 C 
ATOM      9  N   UNL     1      -1.858  -0.640  -1.436  1.00  0.00    -0.289 N 
ATOM     10  S   UNL     1      -1.206  -1.048   1.066  1.00  0.00    -0.129 SA
ATOM     11  C   UNL     1      -0.954  -0.231  -2.347  1.00  0.00     0.253 C 
ATOM     12  C   UNL     1      -0.976  -1.488  -0.669  1.00  0.00     0.181 C 
ATOM     13  O   UNL     1      -1.045   0.399  -3.372  1.00  0.00    -0.272 OA
BRANCH   6  14
ATOM     14  C   UNL     1      -5.239  -0.948   0.098  1.00  0.00    -0.001 C 
ATOM     15  C   UNL     1      -5.930  -1.466   1.123  1.00  0.00     0.009 C 
ENDBRANCH   6  14
BRANCH   7  16
ATOM     16  C   UNL     1      -3.981   0.117  -2.313  1.00  0.00     0.352 C 
ATOM     17  O   UNL     1      -4.767  -0.421  -3.071  1.00  0.00    -0.245 OA
BRANCH  16  18
ATOM     18  O   UNL     1      -3.728   1.438  -2.347  1.00  0.00    -0.477 OA
ATOM     19  H   UNL     1      -4.208   1.757  -3.138  1.00  0.00     0.297 HD
ENDBRANCH  16  18
ENDBRANCH   7  16
ENDBRANCH   1   5
BRANCH   2  20
ATOM     20  C   UNL     1       2.913   0.855   0.669  1.00  0.00     0.193 C 
ATOM     21  N   UNL     1       2.337   1.859   1.277  1.00  0.00    -0.081 NA
BRANCH  20  22
ATOM     22  C   UNL     1       4.381   0.864   0.617  1.00  0.00     0.111 A 
ATOM     23  C   UNL     1       5.172  -0.113   0.037  1.00  0.00     0.099 A 
ATOM     24  N   UNL     1       5.117   1.918   1.168  1.00  0.00    -0.218 NA
ATOM     25  S   UNL     1       6.832   0.285   0.191  1.00  0.00    -0.105 S 
ATOM     26  C   UNL     1       6.400   1.731   1.001  1.00  0.00     0.180 A 
BRANCH  26  27
ATOM     27  N   UNL     1       7.329   2.595   1.442  1.00  0.00    -0.375 N 
ATOM     28  H   UNL     1       6.995   3.247   2.143  1.00  0.00     0.159 HD
ATOM     29  H   UNL     1       8.248   2.220   1.644  1.00  0.00     0.159 HD
ENDBRANCH  26  27
ENDBRANCH  20  22
BRANCH  21  30
ATOM     30  O   UNL     1       0.941   1.782   1.290  1.00  0.00    -0.410 OA
ATOM     31  H   UNL     1       0.698   2.510   1.896  1.00  0.00     0.330 HD
ENDBRANCH  21  30
ENDBRANCH   2  20
TORSDOF 8
