REMARK SMILES CC1CN(c2cc3c(cc2F)c(=O)c(C(=O)O)cn3-c2ccc(F)cc2F)CCN1
REMARK SMILES IDX 5 1 6 2 7 3 8 4 9 5 10 6 11 7 12 8 13 9 14 10 18 11 19 12
REMARK SMILES IDX 4 13 1 14 2 15 3 16 30 17 29 18 28 20 20 21 21 22 26 23
REMARK SMILES IDX 22 24 25 25 27 26 23 27 24 28 15 29 16 30 17 31
REMARK H PARENT 30 19 17 32
REMARK Flexibility Score: inf
ROOT
ATOM      1  C   UNL     1      -1.103  -0.353  -0.722  1.00  0.00     0.075 A 
ATOM      2  C   UNL     1       0.153   0.075  -0.255  1.00  0.00     0.056 A 
ATOM      3  C   UNL     1       1.313  -0.712  -0.391  1.00  0.00     0.059 A 
ATOM      4  C   UNL     1       1.168  -1.992  -0.961  1.00  0.00     0.050 A 
ATOM      5  C   UNL     1      -0.073  -2.443  -1.425  1.00  0.00     0.055 A 
ATOM      6  C   UNL     1      -1.188  -1.624  -1.309  1.00  0.00     0.147 A 
ATOM      7  F   UNL     1      -2.369  -2.093  -1.745  1.00  0.00    -0.205 F 
ATOM      8  C   UNL     1       2.340  -2.897  -1.066  1.00  0.00     0.204 C 
ATOM      9  O   UNL     1       2.219  -3.986  -1.621  1.00  0.00    -0.288 OA
ATOM     10  C   UNL     1       3.623  -2.416  -0.506  1.00  0.00     0.124 C 
ATOM     11  C   UNL     1       3.658  -1.169  -0.013  1.00  0.00     0.111 C 
ATOM     12  N   UNL     1       2.600  -0.267   0.062  1.00  0.00    -0.313 N 
ENDROOT
BRANCH   1  13
ATOM     13  N   UNL     1      -2.199   0.512  -0.536  1.00  0.00    -0.366 N 
ATOM     14  C   UNL     1      -4.949   0.771   2.137  1.00  0.00     0.026 C 
ATOM     15  C   UNL     1      -4.250   1.018   0.799  1.00  0.00     0.070 C 
ATOM     16  C   UNL     1      -2.923   0.212   0.723  1.00  0.00     0.135 C 
ATOM     17  N   UNL     1      -5.197   0.744  -0.309  1.00  0.00    -0.311 NA
ATOM     18  C   UNL     1      -4.509   0.178  -1.486  1.00  0.00     0.102 C 
ATOM     19  H   UNL     1      -5.912   0.077  -0.013  1.00  0.00     0.123 HD
ATOM     20  C   UNL     1      -3.079   0.712  -1.716  1.00  0.00     0.132 C 
ENDBRANCH   1  13
BRANCH  12  21
ATOM     21  C   UNL     1       2.875   1.068   0.503  1.00  0.00     0.082 A 
ATOM     22  C   UNL     1       3.398   1.297   1.789  1.00  0.00     0.033 A 
ATOM     23  C   UNL     1       2.653   2.182  -0.330  1.00  0.00     0.150 A 
ATOM     24  C   UNL     1       3.665   2.598   2.225  1.00  0.00     0.041 A 
ATOM     25  C   UNL     1       2.916   3.479   0.099  1.00  0.00     0.080 A 
ATOM     26  F   UNL     1       2.190   2.006  -1.578  1.00  0.00    -0.205 F 
ATOM     27  C   UNL     1       3.418   3.673   1.377  1.00  0.00     0.126 A 
ATOM     28  F   UNL     1       3.670   4.917   1.806  1.00  0.00    -0.207 F 
ENDBRANCH  12  21
BRANCH  10  29
ATOM     29  C   UNL     1       4.868  -3.193  -0.465  1.00  0.00     0.341 C 
ATOM     30  O   UNL     1       5.996  -2.725  -0.427  1.00  0.00    -0.246 OA
BRANCH  29  31
ATOM     31  O   UNL     1       4.671  -4.517  -0.395  1.00  0.00    -0.477 OA
ATOM     32  H   UNL     1       5.568  -4.909  -0.395  1.00  0.00     0.297 HD
ENDBRANCH  29  31
ENDBRANCH  10  29
TORSDOF 4
