REMARK SMILES CN1C(=O)CC(c2ccccc2)C1=O
REMARK SMILES IDX 1 1 2 2 3 3 4 4 5 5 6 6 13 7 14 8 7 9 8 10 12 11 9 12 11 13
REMARK SMILES IDX 10 14
REMARK H PARENT
REMARK Flexibility Score: inf
ROOT
ATOM      1  C   UNL     1       3.258   0.861  -1.378  1.00  0.00     0.156 C 
ATOM      2  N   UNL     1       2.220   0.072  -0.761  1.00  0.00    -0.285 N 
ATOM      3  C   UNL     1       2.357  -0.541   0.449  1.00  0.00     0.230 C 
ATOM      4  O   UNL     1       3.324  -0.475   1.194  1.00  0.00    -0.274 OA
ATOM      5  C   UNL     1       1.138  -1.370   0.725  1.00  0.00     0.119 C 
ATOM      6  C   UNL     1       0.191  -1.046  -0.430  1.00  0.00     0.118 C 
ATOM      7  C   UNL     1       1.043  -0.237  -1.382  1.00  0.00     0.236 C 
ATOM      8  O   UNL     1       0.722   0.082  -2.518  1.00  0.00    -0.274 OA
ENDROOT
BRANCH   6   9
ATOM      9  C   UNL     1      -1.066  -0.314  -0.003  1.00  0.00    -0.035 A 
ATOM     10  C   UNL     1      -2.322  -0.844  -0.332  1.00  0.00     0.004 A 
ATOM     11  C   UNL     1      -1.014   0.893   0.714  1.00  0.00     0.004 A 
ATOM     12  C   UNL     1      -3.495  -0.191   0.051  1.00  0.00     0.000 A 
ATOM     13  C   UNL     1      -2.188   1.544   1.096  1.00  0.00     0.000 A 
ATOM     14  C   UNL     1      -3.428   1.002   0.766  1.00  0.00     0.000 A 
ENDBRANCH   6   9
TORSDOF 1
