REMARK SMILES C[C@H]1CO[C@@H]2Cn3cc(C(=O)NCc4ccc(F)cc4F)c(=O)c(O)c3C(=O)N12
REMARK SMILES IDX 10 1 11 2 12 3 9 5 1 6 2 7 3 8 29 9 4 10 5 11 27 12 6 13
REMARK SMILES IDX 26 14 28 15 7 16 24 17 8 18 22 19 23 20 25 21 13 23 14 24
REMARK SMILES IDX 15 25 20 26 16 27 19 28 21 29 17 30 18 31
REMARK H PARENT 12 4 25 22
REMARK Flexibility Score: inf
ROOT
ATOM      1  C   UNL     1       2.165  -1.078  -0.797  1.00  0.00     0.257 C 
ATOM      2  O   UNL     1       2.489  -0.754  -1.936  1.00  0.00    -0.269 OA
ATOM      3  N   UNL     1       3.042  -1.605   0.114  1.00  0.00    -0.348 N 
ATOM      4  H   UNL     1       2.704  -1.797   1.057  1.00  0.00     0.164 HD
ENDROOT
BRANCH   1   5
ATOM      5  C   UNL     1       0.765  -0.916  -0.312  1.00  0.00     0.107 C 
ATOM      6  C   UNL     1      -6.025   1.581   0.669  1.00  0.00     0.034 C 
ATOM      7  C   UNL     1      -5.613   0.374  -0.169  1.00  0.00     0.111 C 
ATOM      8  C   UNL     1      -5.895   0.570  -1.650  1.00  0.00     0.187 C 
ATOM      9  N   UNL     1      -4.186   0.207  -0.191  1.00  0.00    -0.305 N 
ATOM     10  O   UNL     1      -4.696   1.138  -2.223  1.00  0.00    -0.354 OA
ATOM     11  C   UNL     1      -3.614   0.895  -1.313  1.00  0.00     0.237 C 
ATOM     12  C   UNL     1      -3.431  -0.412   0.766  1.00  0.00     0.276 C 
ATOM     13  C   UNL     1      -2.472   0.089  -1.933  1.00  0.00     0.177 C 
ATOM     14  C   UNL     1      -1.957  -0.578   0.429  1.00  0.00     0.153 C 
ATOM     15  O   UNL     1      -3.900  -0.842   1.818  1.00  0.00    -0.267 OA
ATOM     16  N   UNL     1      -1.505  -0.288  -0.877  1.00  0.00    -0.335 N 
ATOM     17  C   UNL     1      -1.140  -1.016   1.413  1.00  0.00     0.194 C 
ATOM     18  C   UNL     1      -0.168  -0.496  -1.181  1.00  0.00     0.104 C 
ATOM     19  C   UNL     1       0.319  -1.182   1.083  1.00  0.00     0.236 C 
ATOM     20  O   UNL     1       1.130  -1.531   1.942  1.00  0.00    -0.285 OA
BRANCH  17  21
ATOM     21  O   UNL     1      -1.536  -1.327   2.705  1.00  0.00    -0.503 OA
ATOM     22  H   UNL     1      -2.514  -1.252   2.760  1.00  0.00     0.293 HD
ENDBRANCH  17  21
ENDBRANCH   1   5
BRANCH   3  23
ATOM     23  C   UNL     1       4.464  -1.701  -0.133  1.00  0.00     0.155 C 
BRANCH  23  24
ATOM     24  C   UNL     1       5.221  -0.481   0.327  1.00  0.00     0.007 A 
ATOM     25  C   UNL     1       4.867   0.231   1.486  1.00  0.00     0.011 A 
ATOM     26  C   UNL     1       6.359  -0.072  -0.381  1.00  0.00     0.131 A 
ATOM     27  C   UNL     1       5.617   1.337   1.893  1.00  0.00     0.040 A 
ATOM     28  C   UNL     1       7.111   1.028   0.017  1.00  0.00     0.078 A 
ATOM     29  F   UNL     1       6.752  -0.756  -1.465  1.00  0.00    -0.207 F 
ATOM     30  C   UNL     1       6.728   1.726   1.152  1.00  0.00     0.126 A 
ATOM     31  F   UNL     1       7.445   2.787   1.548  1.00  0.00    -0.207 F 
ENDBRANCH  23  24
ENDBRANCH   3  23
TORSDOF 4
