REMARK SMILES C[C@H](C(=O)O)c1cccc(C(=O)c2ccccc2)c1
REMARK SMILES IDX 6 1 7 2 8 3 9 4 10 5 19 6 2 7 1 8 3 9 4 10 5 11 11 13 12 14
REMARK SMILES IDX 13 15 14 16 18 17 15 18 17 19 16 20
REMARK H PARENT 5 12
REMARK Flexibility Score: inf
ROOT
ATOM      1  C   UNL     1      -1.582  -0.192   0.570  1.00  0.00    -0.033 A 
ATOM      2  C   UNL     1      -1.905  -1.136   1.559  1.00  0.00     0.004 A 
ATOM      3  C   UNL     1      -1.075  -2.233   1.797  1.00  0.00     0.001 A 
ATOM      4  C   UNL     1       0.092  -2.401   1.054  1.00  0.00     0.012 A 
ATOM      5  C   UNL     1       0.438  -1.465   0.076  1.00  0.00     0.023 A 
ATOM      6  C   UNL     1      -0.407  -0.375  -0.178  1.00  0.00     0.016 A 
ENDROOT
BRANCH   1   7
ATOM      7  C   UNL     1      -2.489   0.992   0.281  1.00  0.00     0.126 C 
ATOM      8  C   UNL     1      -2.733   1.863   1.516  1.00  0.00     0.025 C 
BRANCH   7   9
ATOM      9  C   UNL     1      -3.780   0.557  -0.390  1.00  0.00     0.310 C 
ATOM     10  O   UNL     1      -3.936   0.388  -1.590  1.00  0.00    -0.252 OA
BRANCH   9  11
ATOM     11  O   UNL     1      -4.794   0.303   0.461  1.00  0.00    -0.481 OA
ATOM     12  H   UNL     1      -5.516  -0.007  -0.125  1.00  0.00     0.296 HD
ENDBRANCH   9  11
ENDBRANCH   7   9
ENDBRANCH   1   7
BRANCH   5  13
ATOM     13  C   UNL     1       1.683  -1.686  -0.705  1.00  0.00     0.193 C 
ATOM     14  O   UNL     1       2.039  -2.834  -0.957  1.00  0.00    -0.289 OA
BRANCH  13  15
ATOM     15  C   UNL     1       2.508  -0.550  -1.186  1.00  0.00     0.022 A 
ATOM     16  C   UNL     1       2.685   0.607  -0.417  1.00  0.00     0.012 A 
ATOM     17  C   UNL     1       3.155  -0.671  -2.421  1.00  0.00     0.012 A 
ATOM     18  C   UNL     1       3.479   1.649  -0.901  1.00  0.00     0.001 A 
ATOM     19  C   UNL     1       3.947   0.373  -2.900  1.00  0.00     0.001 A 
ATOM     20  C   UNL     1       4.105   1.533  -2.142  1.00  0.00     0.000 A 
ENDBRANCH  13  15
ENDBRANCH   5  13
TORSDOF 5
