REMARK SMILES CCCc1cc(C(N)=S)ccn1
REMARK SMILES IDX 4 1 5 2 6 3 10 4 11 5 12 6 3 7 2 8 1 9 7 10 9 11 8 12
REMARK H PARENT 8 13 8 14
REMARK Flexibility Score: inf
ROOT
ATOM      1  C   UNL     1      -0.206  -0.435  -0.527  1.00  0.00     0.041 A 
ATOM      2  C   UNL     1       0.818   0.285   0.079  1.00  0.00     0.035 A 
ATOM      3  C   UNL     1       2.018  -0.370   0.363  1.00  0.00     0.012 A 
ATOM      4  C   UNL     1       2.158  -1.720   0.044  1.00  0.00     0.031 A 
ATOM      5  C   UNL     1       1.087  -2.355  -0.555  1.00  0.00     0.112 A 
ATOM      6  N   UNL     1      -0.081  -1.744  -0.847  1.00  0.00    -0.261 NA
ENDROOT
BRANCH   1   7
ATOM      7  C   UNL     1      -1.532   0.218  -0.824  1.00  0.00     0.056 C 
BRANCH   7   8
ATOM      8  C   UNL     1      -2.474   0.140   0.377  1.00  0.00     0.003 C 
ATOM      9  C   UNL     1      -3.817   0.784   0.071  1.00  0.00     0.004 C 
ENDBRANCH   7   8
ENDBRANCH   1   7
BRANCH   3  10
ATOM     10  C   UNL     1       3.128   0.380   1.000  1.00  0.00     0.104 C 
ATOM     11  S   UNL     1       4.090  -0.192   2.239  1.00  0.00    -0.060 S 
BRANCH  10  12
ATOM     12  N   UNL     1       3.362   1.639   0.509  1.00  0.00    -0.389 N 
ATOM     13  H   UNL     1       4.153   2.159   0.874  1.00  0.00     0.157 HD
ATOM     14  H   UNL     1       2.913   2.002  -0.322  1.00  0.00     0.157 HD
ENDBRANCH  10  12
ENDBRANCH   3  10
TORSDOF 4
