REMARK SMILES C/C(=N\O)c1ccc(OCC(=O)N2CCCCC2)cc1
REMARK SMILES IDX 5 1 6 2 7 3 8 4 19 5 20 6 2 7 1 8 3 9 4 10 9 12 10 13 11 14
REMARK SMILES IDX 12 15 13 16 14 17 18 18 15 19 17 20 16 21
REMARK H PARENT 4 11
REMARK Flexibility Score: inf
ROOT
ATOM      1  C   UNL     1       4.246  -0.231  -0.184  1.00  0.00    -0.001 A 
ATOM      2  C   UNL     1       4.032   1.129  -0.429  1.00  0.00     0.014 A 
ATOM      3  C   UNL     1       2.736   1.650  -0.408  1.00  0.00     0.047 A 
ATOM      4  C   UNL     1       1.639   0.823  -0.153  1.00  0.00     0.120 A 
ATOM      5  C   UNL     1       1.850  -0.537   0.078  1.00  0.00     0.047 A 
ATOM      6  C   UNL     1       3.148  -1.063   0.060  1.00  0.00     0.014 A 
ENDROOT
BRANCH   1   7
ATOM      7  C   UNL     1       5.639  -0.766  -0.215  1.00  0.00     0.084 C 
ATOM      8  C   UNL     1       5.968  -1.966   0.651  1.00  0.00     0.071 C 
ATOM      9  N   UNL     1       6.513  -0.188  -0.990  1.00  0.00    -0.094 NA
BRANCH   9  10
ATOM     10  O   UNL     1       7.758  -0.823  -0.929  1.00  0.00    -0.411 OA
ATOM     11  H   UNL     1       8.291  -0.293  -1.550  1.00  0.00     0.330 HD
ENDBRANCH   9  10
ENDBRANCH   1   7
BRANCH   4  12
ATOM     12  O   UNL     1       0.432   1.463  -0.163  1.00  0.00    -0.484 OA
BRANCH  12  13
ATOM     13  C   UNL     1      -0.729   0.674   0.066  1.00  0.00     0.329 C 
BRANCH  13  14
ATOM     14  C   UNL     1      -2.002   1.533   0.033  1.00  0.00     0.260 C 
ATOM     15  O   UNL     1      -1.956   2.764   0.004  1.00  0.00    -0.271 OA
ATOM     16  N   UNL     1      -3.219   0.847   0.039  1.00  0.00    -0.340 N 
ATOM     17  C   UNL     1      -4.455   1.623  -0.070  1.00  0.00     0.119 C 
ATOM     18  C   UNL     1      -3.346  -0.608   0.140  1.00  0.00     0.119 C 
ATOM     19  C   UNL     1      -5.543   0.845  -0.801  1.00  0.00     0.022 C 
ATOM     20  C   UNL     1      -4.697  -1.028   0.707  1.00  0.00     0.022 C 
ATOM     21  C   UNL     1      -5.863  -0.484  -0.117  1.00  0.00     0.004 C 
ENDBRANCH  13  14
ENDBRANCH  12  13
ENDBRANCH   4  12
TORSDOF 5
