REMARK SMILES CC(c1cc2ccccc2s1)N(O)C(N)=O
REMARK SMILES IDX 1 1 2 2 3 3 4 4 11 5 5 6 10 7 6 8 9 9 7 10 8 11 12 12 13 13
REMARK SMILES IDX 14 15 15 16 16 17
REMARK H PARENT 13 14 15 18 15 19
REMARK Flexibility Score: inf
ROOT
ATOM      1  C   UNL     1       1.981  -2.038   1.196  1.00  0.00     0.040 C 
ATOM      2  C   UNL     1       1.454  -1.294  -0.030  1.00  0.00     0.154 C 
ENDROOT
BRANCH   2   3
ATOM      3  C   UNL     1       0.062  -0.708   0.089  1.00  0.00     0.031 A 
ATOM      4  C   UNL     1      -0.791  -0.401  -0.956  1.00  0.00     0.026 A 
ATOM      5  S   UNL     1      -0.670  -0.338   1.590  1.00  0.00    -0.138 S 
ATOM      6  C   UNL     1      -2.049   0.142  -0.535  1.00  0.00    -0.007 A 
ATOM      7  C   UNL     1      -2.116   0.233   0.855  1.00  0.00     0.035 A 
ATOM      8  C   UNL     1      -3.166   0.574  -1.290  1.00  0.00     0.009 A 
ATOM      9  C   UNL     1      -3.257   0.740   1.506  1.00  0.00     0.019 A 
ATOM     10  C   UNL     1      -4.302   1.077  -0.648  1.00  0.00     0.001 A 
ATOM     11  C   UNL     1      -4.345   1.159   0.737  1.00  0.00     0.001 A 
ENDBRANCH   2   3
BRANCH   2  12
ATOM     12  N   UNL     1       2.375  -0.255  -0.510  1.00  0.00    -0.198 N 
BRANCH  12  13
ATOM     13  O   UNL     1       3.249  -0.740  -1.522  1.00  0.00    -0.284 OA
ATOM     14  H   UNL     1       4.120  -0.434  -1.197  1.00  0.00     0.246 HD
ENDBRANCH  12  13
BRANCH  12  15
ATOM     15  C   UNL     1       2.858   0.778   0.264  1.00  0.00     0.339 C 
ATOM     16  N   UNL     1       3.874   1.471  -0.343  1.00  0.00    -0.350 N 
ATOM     17  O   UNL     1       2.482   1.100   1.382  1.00  0.00    -0.246 OA
ATOM     18  H   UNL     1       3.697   1.656  -1.324  1.00  0.00     0.161 HD
ATOM     19  H   UNL     1       4.118   2.303   0.182  1.00  0.00     0.161 HD
ENDBRANCH  12  15
ENDBRANCH   2  12
TORSDOF 4
