REMARK SMILES CNCc1cc(-c2ccccc2F)n(S(=O)(=O)c2cccnc2)c1
REMARK SMILES IDX 4 1 5 2 6 3 14 4 24 5 3 6 2 7 1 8 7 10 8 11 12 12 9 13 11 14
REMARK SMILES IDX 13 15 10 16 15 17 16 18 17 19 18 20 19 21 23 22 20 23 22 24
REMARK SMILES IDX 21 25
REMARK H PARENT 2 9
REMARK Flexibility Score: inf
ROOT
ATOM      1  C   UNL     1      -1.579  -1.740   0.746  1.00  0.00    -0.015 A 
ATOM      2  C   UNL     1      -1.664  -0.734  -0.262  1.00  0.00     0.034 A 
ATOM      3  C   UNL     1      -0.674   0.214  -0.043  1.00  0.00     0.067 A 
ATOM      4  N   UNL     1       0.012  -0.209   1.078  1.00  0.00    -0.241 N 
ATOM      5  C   UNL     1      -0.520  -1.381   1.560  1.00  0.00     0.109 A 
ENDROOT
BRANCH   1   6
ATOM      6  C   UNL     1      -2.463  -2.937   0.889  1.00  0.00     0.118 C 
BRANCH   6   7
ATOM      7  N   UNL     1      -3.674  -2.507   1.580  1.00  0.00    -0.316 NA
ATOM      8  C   UNL     1      -4.572  -3.630   1.804  1.00  0.00     0.101 C 
ATOM      9  H   UNL     1      -3.413  -2.097   2.476  1.00  0.00     0.122 HD
ENDBRANCH   6   7
ENDBRANCH   1   6
BRANCH   3  10
ATOM     10  C   UNL     1      -0.374   1.396  -0.844  1.00  0.00     0.035 A 
ATOM     11  C   UNL     1      -0.766   2.667  -0.413  1.00  0.00     0.013 A 
ATOM     12  C   UNL     1       0.292   1.276  -2.071  1.00  0.00     0.132 A 
ATOM     13  C   UNL     1      -0.471   3.795  -1.184  1.00  0.00     0.001 A 
ATOM     14  C   UNL     1       0.589   2.396  -2.842  1.00  0.00     0.040 A 
ATOM     15  F   UNL     1       0.680   0.070  -2.513  1.00  0.00    -0.206 F 
ATOM     16  C   UNL     1       0.209   3.660  -2.395  1.00  0.00     0.003 A 
ENDBRANCH   3  10
BRANCH   4  17
ATOM     17  S   UNL     1       1.360   0.560   1.791  1.00  0.00     0.269 S 
ATOM     18  O   UNL     1       0.923   1.911   2.082  1.00  0.00    -0.201 OA
ATOM     19  O   UNL     1       1.828  -0.332   2.837  1.00  0.00    -0.201 OA
BRANCH  17  20
ATOM     20  C   UNL     1       2.587   0.589   0.541  1.00  0.00     0.106 A 
ATOM     21  C   UNL     1       3.025  -0.587  -0.066  1.00  0.00     0.025 A 
ATOM     22  C   UNL     1       3.140   1.797   0.157  1.00  0.00     0.133 A 
ATOM     23  C   UNL     1       3.995  -0.502  -1.060  1.00  0.00     0.021 A 
ATOM     24  N   UNL     1       4.085   1.900  -0.808  1.00  0.00    -0.263 NA
ATOM     25  C   UNL     1       4.489   0.750  -1.395  1.00  0.00     0.111 A 
ENDBRANCH  17  20
ENDBRANCH   4  17
TORSDOF 5
