REMARK SMILES CC(=O)OCCN1CCN(CCCN2c3ccccc3Sc3ccc(Cl)cc32)CC1
REMARK SMILES IDX 7 1 8 2 9 3 10 4 29 5 30 6 6 7 5 8 4 9 2 10 1 11 3 12 11 13
REMARK SMILES IDX 12 14 13 15 14 16 15 17 28 18 16 19 20 20 22 21 27 22 17 23
REMARK SMILES IDX 19 24 21 25 23 26 25 27 18 28 24 29 26 30
REMARK H PARENT
REMARK Flexibility Score: inf
ROOT
ATOM      1  N   UNL     1       3.743  -0.169   0.149  1.00  0.00    -0.297 NA
ATOM      2  C   UNL     1       2.628  -0.513   1.056  1.00  0.00     0.100 C 
ATOM      3  C   UNL     1       1.273   0.110   0.652  1.00  0.00     0.100 C 
ATOM      4  N   UNL     1       0.807  -0.310  -0.690  1.00  0.00    -0.301 NA
ATOM      5  C   UNL     1       1.956  -0.624  -1.570  1.00  0.00     0.100 C 
ATOM      6  C   UNL     1       3.254   0.134  -1.211  1.00  0.00     0.100 C 
ENDROOT
BRANCH   1   7
ATOM      7  C   UNL     1       4.583   0.913   0.697  1.00  0.00     0.126 C 
BRANCH   7   8
ATOM      8  C   UNL     1       5.851   1.219  -0.125  1.00  0.00     0.248 C 
BRANCH   8   9
ATOM      9  O   UNL     1       6.663   0.049  -0.318  1.00  0.00    -0.465 OA
BRANCH   9  10
ATOM     10  C   UNL     1       7.414  -0.325   0.752  1.00  0.00     0.302 C 
ATOM     11  C   UNL     1       8.156  -1.588   0.440  1.00  0.00     0.139 C 
ATOM     12  O   UNL     1       7.491   0.278   1.814  1.00  0.00    -0.253 OA
ENDBRANCH   9  10
ENDBRANCH   8   9
ENDBRANCH   7   8
ENDBRANCH   1   7
BRANCH   4  13
ATOM     13  C   UNL     1      -0.087   0.686  -1.297  1.00  0.00     0.086 C 
BRANCH  13  14
ATOM     14  C   UNL     1      -1.421   0.854  -0.560  1.00  0.00     0.037 C 
BRANCH  14  15
ATOM     15  C   UNL     1      -2.228  -0.453  -0.515  1.00  0.00     0.124 C 
BRANCH  15  16
ATOM     16  N   UNL     1      -3.623  -0.214  -0.063  1.00  0.00    -0.340 N 
ATOM     17  C   UNL     1      -3.891  -0.359   1.330  1.00  0.00     0.055 A 
ATOM     18  C   UNL     1      -4.601   0.037  -1.071  1.00  0.00     0.057 A 
ATOM     19  C   UNL     1      -2.861  -0.387   2.298  1.00  0.00     0.027 A 
ATOM     20  C   UNL     1      -5.207  -0.459   1.826  1.00  0.00     0.036 A 
ATOM     21  C   UNL     1      -5.983  -0.028  -0.795  1.00  0.00     0.036 A 
ATOM     22  C   UNL     1      -4.245   0.390  -2.393  1.00  0.00     0.048 A 
ATOM     23  C   UNL     1      -3.113  -0.516   3.670  1.00  0.00     0.002 A 
ATOM     24  C   UNL     1      -5.457  -0.590   3.207  1.00  0.00     0.017 A 
ATOM     25  S   UNL     1      -6.650  -0.469   0.791  1.00  0.00    -0.086 SA
ATOM     26  C   UNL     1      -6.940   0.232  -1.797  1.00  0.00     0.019 A 
ATOM     27  C   UNL     1      -5.202   0.650  -3.380  1.00  0.00     0.043 A 
ATOM     28  C   UNL     1      -4.415  -0.619   4.127  1.00  0.00     0.001 A 
ATOM     29  C   UNL     1      -6.553   0.570  -3.088  1.00  0.00     0.022 A 
ATOM     30  Cl  UNL     1      -4.695   1.078  -4.968  1.00  0.00    -0.084 Cl
ENDBRANCH  15  16
ENDBRANCH  14  15
ENDBRANCH  13  14
ENDBRANCH   4  13
TORSDOF 8
