REMARK SMILES COCC1=C(C(=O)O)N2C(=O)[C@@H](NC(=O)/C(=N\OC)c3csc(N)n3)[C@H]2SC1
REMARK SMILES IDX 13 1 14 2 15 3 12 5 4 6 5 7 28 8 9 9 27 10 10 11 26 12 11 13
REMARK SMILES IDX 3 14 2 15 1 16 6 17 7 18 8 19 16 21 17 22 20 23 21 24 25 25
REMARK SMILES IDX 22 26 23 27 24 28 18 31 19 32
REMARK H PARENT 13 4 8 20 24 29 24 30
REMARK Flexibility Score: inf
ROOT
ATOM      1  N   UNL     1       1.075   0.573  -0.904  1.00  0.00    -0.336 N 
ATOM      2  C   UNL     1       2.045  -0.270  -1.404  1.00  0.00     0.276 C 
ATOM      3  O   UNL     1       1.947  -0.876  -2.462  1.00  0.00    -0.267 OA
ATOM      4  H   UNL     1       1.186   0.850   0.070  1.00  0.00     0.164 HD
ENDROOT
BRANCH   1   5
ATOM      5  C   UNL     1      -0.217   0.767  -1.609  1.00  0.00     0.206 C 
ATOM      6  C   UNL     1      -3.714  -0.533   0.302  1.00  0.00    -0.003 C 
ATOM      7  C   UNL     1      -3.283   0.677  -0.125  1.00  0.00     0.133 C 
ATOM      8  C   UNL     1      -2.937  -1.812   0.066  1.00  0.00     0.107 C 
ATOM      9  N   UNL     1      -2.164   0.806  -0.895  1.00  0.00    -0.289 N 
ATOM     10  S   UNL     1      -1.148  -1.522  -0.100  1.00  0.00    -0.129 SA
ATOM     11  C   UNL     1      -1.210   1.765  -0.945  1.00  0.00     0.253 C 
ATOM     12  C   UNL     1      -1.353  -0.282  -1.404  1.00  0.00     0.181 C 
ATOM     13  O   UNL     1      -1.161   2.900  -0.531  1.00  0.00    -0.272 OA
BRANCH   6  14
ATOM     14  C   UNL     1      -5.007  -0.754   1.053  1.00  0.00     0.194 C 
BRANCH  14  15
ATOM     15  O   UNL     1      -4.752  -1.309   2.341  1.00  0.00    -0.380 OA
ATOM     16  C   UNL     1      -4.460  -0.317   3.318  1.00  0.00     0.195 C 
ENDBRANCH  14  15
ENDBRANCH   6  14
BRANCH   7  17
ATOM     17  C   UNL     1      -4.008   1.930   0.236  1.00  0.00     0.352 C 
ATOM     18  O   UNL     1      -4.453   2.229   1.329  1.00  0.00    -0.245 OA
BRANCH  17  19
ATOM     19  O   UNL     1      -4.169   2.723  -0.840  1.00  0.00    -0.477 OA
ATOM     20  H   UNL     1      -4.568   3.541  -0.476  1.00  0.00     0.297 HD
ENDBRANCH  17  19
ENDBRANCH   7  17
ENDBRANCH   1   5
BRANCH   2  21
ATOM     21  C   UNL     1       3.324  -0.352  -0.565  1.00  0.00     0.193 C 
ATOM     22  N   UNL     1       3.312  -0.648   0.706  1.00  0.00    -0.079 NA
BRANCH  21  23
ATOM     23  C   UNL     1       4.623  -0.052  -1.175  1.00  0.00     0.111 A 
ATOM     24  C   UNL     1       4.832   0.237  -2.514  1.00  0.00     0.099 A 
ATOM     25  N   UNL     1       5.794  -0.016  -0.411  1.00  0.00    -0.218 NA
ATOM     26  S   UNL     1       6.490   0.552  -2.810  1.00  0.00    -0.105 S 
ATOM     27  C   UNL     1       6.830   0.270  -1.155  1.00  0.00     0.180 A 
BRANCH  27  28
ATOM     28  N   UNL     1       8.078   0.366  -0.668  1.00  0.00    -0.375 N 
ATOM     29  H   UNL     1       8.731   0.953  -1.171  1.00  0.00     0.159 HD
ATOM     30  H   UNL     1       8.133   0.461   0.340  1.00  0.00     0.159 HD
ENDBRANCH  27  28
ENDBRANCH  21  23
BRANCH  22  31
ATOM     31  O   UNL     1       2.027  -0.928   1.185  1.00  0.00    -0.398 OA
ATOM     32  C   UNL     1       2.140  -1.434   2.511  1.00  0.00     0.315 C 
ENDBRANCH  22  31
ENDBRANCH   2  21
TORSDOF 9
