REMARK SMILES CN1CCC(=C2c3ccccc3CCn3c(C=O)cnc32)CC1
REMARK SMILES IDX 1 1 2 2 3 3 4 4 5 5 6 6 22 7 23 8 7 9 8 10 12 11 9 12 11 13
REMARK SMILES IDX 10 14 13 15 21 17 15 18 20 19 16 20 19 21 14 22 17 24 18 25
REMARK H PARENT
REMARK Flexibility Score: 90.00
ROOT
ATOM      1  C   UNL     1       5.035   0.154   0.815  1.00  0.00     0.105 C 
ATOM      2  N   UNL     1       4.057  -0.036  -0.251  1.00  0.00    -0.306 NA
ATOM      3  C   UNL     1       3.189   1.148  -0.381  1.00  0.00     0.088 C 
ATOM      4  C   UNL     1       1.871   0.858  -1.118  1.00  0.00     0.047 C 
ATOM      5  C   UNL     1       1.026  -0.185  -0.386  1.00  0.00    -0.056 C 
ATOM      6  C   UNL     1      -0.331  -0.256  -0.479  1.00  0.00     0.024 C 
ATOM      7  C   UNL     1       1.880  -1.100   0.486  1.00  0.00     0.047 C 
ATOM      8  C   UNL     1       3.294  -1.284  -0.090  1.00  0.00     0.088 C 
ENDROOT
BRANCH   6   9
ATOM      9  C   UNL     1      -1.083  -1.264   0.308  1.00  0.00    -0.011 A 
ATOM     10  C   UNL     1      -1.053  -2.623  -0.030  1.00  0.00     0.009 A 
ATOM     11  C   UNL     1      -1.883  -0.831   1.379  1.00  0.00    -0.038 A 
ATOM     12  C   UNL     1      -1.770  -3.552   0.725  1.00  0.00     0.001 A 
ATOM     13  C   UNL     1      -2.596  -1.770   2.135  1.00  0.00     0.004 A 
ATOM     14  C   UNL     1      -2.532  -3.126   1.811  1.00  0.00     0.000 A 
BRANCH  11  15
ATOM     15  C   UNL     1      -2.005   0.646   1.652  1.00  0.00     0.058 CG0
ATOM     16  G   UNL     1      -2.738   1.356   0.510  1.00  0.00     0.000 G0
ENDBRANCH  11  15
ENDBRANCH   6   9
BRANCH   6  17
ATOM     17  C   UNL     1      -1.028   0.697  -1.293  1.00  0.00     0.141 A 
ATOM     18  N   UNL     1      -2.125   1.395  -0.812  1.00  0.00    -0.321 N 
ATOM     19  N   UNL     1      -0.772   1.055  -2.539  1.00  0.00    -0.236 NA
ATOM     20  C   UNL     1      -2.596   2.195  -1.844  1.00  0.00     0.101 A 
ATOM     21  C   UNL     1      -1.726   1.965  -2.885  1.00  0.00     0.143 A 
BRANCH  18  22
ATOM     22  C   UNL     1      -2.738   1.356   0.510  1.00  0.00     0.129 CG0
ATOM     23  G   UNL     1      -2.005   0.646   1.652  1.00  0.00     0.000 G0
ENDBRANCH  18  22
BRANCH  20  24
ATOM     24  C   UNL     1      -3.740   3.069  -1.836  1.00  0.00     0.279 C 
ATOM     25  O   UNL     1      -4.079   3.785  -2.774  1.00  0.00    -0.296 OA
ENDBRANCH  20  24
ENDBRANCH   6  17
TORSDOF 1
