REMARK SMILES Nc1nc(NC2CC2)c2ncn([C@H]3C=C[C@@H](CO)C3)c2n1
REMARK SMILES IDX 13 1 14 2 15 3 16 4 19 5 12 6 2 7 3 8 21 9 4 10 20 11 9 12
REMARK SMILES IDX 10 13 11 14 1 15 5 18 6 20 7 21 8 22 17 23 18 24
REMARK H PARENT 1 16 1 17 5 19 18 25
REMARK Flexibility Score: inf
ROOT
ATOM      1  C   UNL     1      -2.173  -1.563   0.269  1.00  0.00     0.113 C 
ATOM      2  C   UNL     1      -3.224  -1.598   1.339  1.00  0.00    -0.006 C 
ATOM      3  C   UNL     1      -4.391  -1.096   0.922  1.00  0.00    -0.023 C 
ATOM      4  C   UNL     1      -4.332  -0.636  -0.504  1.00  0.00     0.039 C 
ATOM      5  C   UNL     1      -2.969  -1.172  -0.989  1.00  0.00     0.040 C 
ENDROOT
BRANCH   1   6
ATOM      6  N   UNL     1      -1.073  -0.654   0.550  1.00  0.00    -0.308 N 
ATOM      7  C   UNL     1       1.951  -1.556  -1.077  1.00  0.00     0.224 A 
ATOM      8  N   UNL     1       2.746  -0.560  -0.651  1.00  0.00    -0.194 NA
ATOM      9  N   UNL     1       0.663  -1.751  -0.758  1.00  0.00    -0.193 NA
ATOM     10  C   UNL     1       2.239   0.410   0.160  1.00  0.00     0.160 A 
ATOM     11  C   UNL     1       0.194  -0.785   0.044  1.00  0.00     0.168 A 
ATOM     12  C   UNL     1       0.891   0.302   0.537  1.00  0.00     0.150 A 
ATOM     13  N   UNL     1       0.084   1.082   1.340  1.00  0.00    -0.231 NA
ATOM     14  C   UNL     1      -1.088   0.481   1.318  1.00  0.00     0.202 A 
BRANCH   7  15
ATOM     15  N   UNL     1       2.540  -2.504  -1.890  1.00  0.00    -0.368 N 
ATOM     16  H   UNL     1       2.066  -3.390  -1.796  1.00  0.00     0.159 HD
ATOM     17  H   UNL     1       3.541  -2.489  -1.750  1.00  0.00     0.159 HD
ENDBRANCH   7  15
BRANCH  10  18
ATOM     18  N   UNL     1       3.034   1.480   0.608  1.00  0.00    -0.365 N 
ATOM     19  H   UNL     1       2.576   1.967   1.376  1.00  0.00     0.162 HD
BRANCH  18  20
ATOM     20  C   UNL     1       4.485   1.359   0.593  1.00  0.00     0.081 C 
ATOM     21  C   UNL     1       5.278   1.709  -0.634  1.00  0.00     0.027 C 
ATOM     22  C   UNL     1       5.345   2.592   0.578  1.00  0.00     0.027 C 
ENDBRANCH  18  20
ENDBRANCH  10  18
ENDBRANCH   1   6
BRANCH   4  23
ATOM     23  C   UNL     1      -4.459   0.883  -0.640  1.00  0.00     0.163 C 
BRANCH  23  24
ATOM     24  O   UNL     1      -4.461   1.237  -2.017  1.00  0.00    -0.396 OA
ATOM     25  H   UNL     1      -4.509   2.208  -2.065  1.00  0.00     0.210 HD
ENDBRANCH  23  24
ENDBRANCH   4  23
TORSDOF 6
