REMARK SMILES Nc1nc(-n2cc(C(=O)O)c(=O)c3cc(F)c(N4CC(O)C4)c(Cl)c32)c(F)cc1F
REMARK SMILES IDX 5 1 6 2 7 3 11 4 12 5 13 6 14 7 15 8 16 9 17 10 23 11 24 12
REMARK SMILES IDX 25 13 4 14 2 15 3 16 29 17 28 18 30 19 26 20 27 21 1 22 8 25
REMARK SMILES IDX 9 26 10 27 18 29 19 30 22 31 20 32 21 33
REMARK H PARENT 1 23 1 24 10 28 21 34
REMARK Flexibility Score: inf
ROOT
ATOM      1  N   UNL     1      -1.465   0.815  -0.541  1.00  0.00    -0.296 N 
ATOM      2  C   UNL     1      -2.269   1.956  -0.576  1.00  0.00     0.113 C 
ATOM      3  C   UNL     1      -1.980   3.176  -0.097  1.00  0.00     0.124 C 
ATOM      4  C   UNL     1      -0.676   3.329   0.585  1.00  0.00     0.204 C 
ATOM      5  O   UNL     1      -0.347   4.341   1.194  1.00  0.00    -0.288 OA
ATOM      6  C   UNL     1       0.279   2.195   0.501  1.00  0.00     0.052 A 
ATOM      7  C   UNL     1       1.563   2.379   1.018  1.00  0.00     0.056 A 
ATOM      8  C   UNL     1       2.499   1.365   0.897  1.00  0.00     0.148 A 
ATOM      9  F   UNL     1       3.718   1.568   1.420  1.00  0.00    -0.205 F 
ATOM     10  C   UNL     1       2.221   0.164   0.223  1.00  0.00     0.094 A 
ATOM     11  C   UNL     1       0.921  -0.002  -0.315  1.00  0.00     0.092 A 
ATOM     12  Cl  UNL     1       0.617  -1.336  -1.402  1.00  0.00    -0.080 Cl
ATOM     13  C   UNL     1      -0.095   0.983  -0.115  1.00  0.00     0.079 A 
ENDROOT
BRANCH   1  14
ATOM     14  C   UNL     1      -2.141  -0.448  -0.385  1.00  0.00     0.176 A 
ATOM     15  C   UNL     1      -2.498  -2.382   0.863  1.00  0.00     0.162 A 
ATOM     16  N   UNL     1      -1.855  -1.207   0.711  1.00  0.00    -0.207 NA
ATOM     17  C   UNL     1      -3.433  -2.849  -0.063  1.00  0.00     0.168 A 
ATOM     18  C   UNL     1      -3.734  -2.088  -1.178  1.00  0.00     0.086 A 
ATOM     19  F   UNL     1      -4.054  -4.024   0.121  1.00  0.00    -0.203 F 
ATOM     20  C   UNL     1      -3.080  -0.876  -1.338  1.00  0.00     0.169 A 
ATOM     21  F   UNL     1      -3.347  -0.140  -2.427  1.00  0.00    -0.203 F 
BRANCH  15  22
ATOM     22  N   UNL     1      -2.130  -3.145   1.970  1.00  0.00    -0.381 N 
ATOM     23  H   UNL     1      -2.931  -3.516   2.470  1.00  0.00     0.158 HD
ATOM     24  H   UNL     1      -1.507  -2.599   2.556  1.00  0.00     0.158 HD
ENDBRANCH  15  22
ENDBRANCH   1  14
BRANCH   3  25
ATOM     25  C   UNL     1      -3.011   4.218  -0.241  1.00  0.00     0.341 C 
ATOM     26  O   UNL     1      -4.103   4.060  -0.767  1.00  0.00    -0.246 OA
BRANCH  25  27
ATOM     27  O   UNL     1      -2.665   5.415   0.256  1.00  0.00    -0.477 OA
ATOM     28  H   UNL     1      -3.435   5.996   0.097  1.00  0.00     0.297 HD
ENDBRANCH  25  27
ENDBRANCH   3  25
BRANCH  10  29
ATOM     29  N   UNL     1       3.293  -0.766   0.143  1.00  0.00    -0.363 N 
ATOM     30  C   UNL     1       3.230  -2.162   0.509  1.00  0.00     0.150 C 
ATOM     31  C   UNL     1       4.003  -1.076  -1.078  1.00  0.00     0.150 C 
ATOM     32  C   UNL     1       4.474  -2.364  -0.378  1.00  0.00     0.153 C 
BRANCH  32  33
ATOM     33  O   UNL     1       5.762  -2.311   0.283  1.00  0.00    -0.389 OA
ATOM     34  H   UNL     1       5.724  -1.484   0.800  1.00  0.00     0.211 HD
ENDBRANCH  32  33
ENDBRANCH  10  29
TORSDOF 6
