REMARK SMILES CN[C@@H]1C[C@H]2O[C@@](C)([C@@H]1OC)n1c3ccccc3c3c4c(c5c6ccccc6n2c5c31)C(=O)N[C@@H]4O
REMARK SMILES IDX 5 1 4 2 3 3 9 4 7 5 8 6 6 7 12 8 13 9 18 10 17 11 16 12
REMARK SMILES IDX 15 13 14 14 19 15 20 16 35 17 34 18 32 19 33 20 21 21 22 22
REMARK SMILES IDX 23 23 28 24 27 25 26 26 25 27 24 28 29 29 30 30 31 31 2 33
REMARK SMILES IDX 1 34 10 36 11 37 36 38
REMARK H PARENT 34 32 2 35 36 39
REMARK Flexibility Score: inf
ROOT
ATOM      1  C   UNL     1       1.012   1.788  -1.063  1.00  0.00     0.224 C 
ATOM      2  C   UNL     1       2.145   2.069  -0.068  1.00  0.00     0.077 C 
ATOM      3  C   UNL     1       3.196   0.952  -0.069  1.00  0.00     0.091 C 
ATOM      4  C   UNL     1       2.448  -0.396   0.081  1.00  0.00     0.188 C 
ATOM      5  C   UNL     1       1.558  -0.610  -1.189  1.00  0.00     0.173 C 
ATOM      6  C   UNL     1       2.393  -1.281  -2.305  1.00  0.00     0.071 C 
ATOM      7  O   UNL     1       1.198   0.622  -1.862  1.00  0.00    -0.329 OA
ATOM      8  N   UNL     1       0.325  -1.358  -0.879  1.00  0.00    -0.307 N 
ATOM      9  C   UNL     1       0.158  -2.737  -0.755  1.00  0.00     0.052 A 
ATOM     10  C   UNL     1      -1.202  -2.966  -0.469  1.00  0.00     0.008 A 
ATOM     11  C   UNL     1      -1.663  -4.295  -0.334  1.00  0.00     0.011 A 
ATOM     12  C   UNL     1      -0.774  -5.362  -0.463  1.00  0.00     0.001 A 
ATOM     13  C   UNL     1       0.570  -5.122  -0.707  1.00  0.00     0.002 A 
ATOM     14  C   UNL     1       1.056  -3.818  -0.847  1.00  0.00     0.027 A 
ATOM     15  C   UNL     1      -1.832  -1.702  -0.312  1.00  0.00     0.018 A 
ATOM     16  C   UNL     1      -3.106  -1.224   0.039  1.00  0.00     0.024 A 
ATOM     17  C   UNL     1      -4.366  -1.991   0.318  1.00  0.00     0.244 C 
ATOM     18  N   UNL     1      -5.297  -0.977   0.673  1.00  0.00    -0.323 N 
ATOM     19  C   UNL     1      -4.788   0.296   0.574  1.00  0.00     0.254 C 
ATOM     20  O   UNL     1      -5.420   1.313   0.774  1.00  0.00    -0.269 OA
ATOM     21  C   UNL     1      -3.374   0.172   0.192  1.00  0.00     0.058 A 
ATOM     22  C   UNL     1      -2.430   1.196   0.021  1.00  0.00     0.023 A 
ATOM     23  C   UNL     1      -2.346   2.618   0.124  1.00  0.00     0.008 A 
ATOM     24  C   UNL     1      -1.034   2.991  -0.211  1.00  0.00     0.052 A 
ATOM     25  C   UNL     1      -0.617   4.335  -0.209  1.00  0.00     0.027 A 
ATOM     26  C   UNL     1      -1.546   5.317   0.143  1.00  0.00     0.002 A 
ATOM     27  C   UNL     1      -2.849   4.976   0.480  1.00  0.00     0.001 A 
ATOM     28  C   UNL     1      -3.258   3.638   0.474  1.00  0.00     0.011 A 
ATOM     29  N   UNL     1      -0.342   1.830  -0.522  1.00  0.00    -0.312 N 
ATOM     30  C   UNL     1      -1.170   0.763  -0.357  1.00  0.00     0.077 A 
ATOM     31  C   UNL     1      -0.858  -0.753  -0.537  1.00  0.00     0.077 A 
ATOM     32  H   UNL     1      -6.268  -1.148   0.888  1.00  0.00     0.166 HD
ENDROOT
BRANCH   3  33
ATOM     33  N   UNL     1       4.200   1.144   1.001  1.00  0.00    -0.314 NA
ATOM     34  C   UNL     1       5.090   2.273   0.761  1.00  0.00     0.101 C 
ATOM     35  H   UNL     1       4.762   0.300   1.104  1.00  0.00     0.122 HD
ENDBRANCH   3  33
BRANCH   4  36
ATOM     36  O   UNL     1       1.635  -0.318   1.270  1.00  0.00    -0.375 OA
ATOM     37  C   UNL     1       2.071  -1.184   2.310  1.00  0.00     0.195 C 
ENDBRANCH   4  36
BRANCH  17  38
ATOM     38  O   UNL     1      -4.262  -2.841   1.431  1.00  0.00    -0.369 OA
ATOM     39  H   UNL     1      -3.773  -2.335   2.103  1.00  0.00     0.213 HD
ENDBRANCH  17  38
TORSDOF 3
