REMARK SMILES O=C1Nc2ccccc2C1(c1ccc(O)cc1)c1ccc(O)cc1
REMARK SMILES IDX 1 1 2 2 3 3 4 4 5 5 6 6 7 7 8 8 9 9 10 10 11 12 12 13 17 14
REMARK SMILES IDX 13 15 16 16 14 17 15 18 18 20 19 21 24 22 20 23 23 24 21 25
REMARK SMILES IDX 22 26
REMARK H PARENT 3 11 15 19 22 27
REMARK Flexibility Score: inf
ROOT
ATOM      1  O   UNL     1       0.525   0.115  -2.994  1.00  0.00    -0.273 OA
ATOM      2  C   UNL     1       0.148   0.743  -2.014  1.00  0.00     0.244 C 
ATOM      3  N   UNL     1      -0.287   2.063  -2.063  1.00  0.00    -0.324 N 
ATOM      4  C   UNL     1      -0.718   2.502  -0.825  1.00  0.00     0.046 A 
ATOM      5  C   UNL     1      -1.243   3.744  -0.530  1.00  0.00     0.026 A 
ATOM      6  C   UNL     1      -1.650   3.974   0.786  1.00  0.00     0.002 A 
ATOM      7  C   UNL     1      -1.528   2.969   1.760  1.00  0.00     0.000 A 
ATOM      8  C   UNL     1      -0.993   1.719   1.437  1.00  0.00     0.008 A 
ATOM      9  C   UNL     1      -0.577   1.495   0.130  1.00  0.00     0.000 A 
ATOM     10  C   UNL     1       0.038   0.243  -0.510  1.00  0.00     0.126 C 
ATOM     11  H   UNL     1      -0.306   2.596  -2.919  1.00  0.00     0.169 HD
ENDROOT
BRANCH  10  12
ATOM     12  C   UNL     1       1.481  -0.091  -0.048  1.00  0.00    -0.023 A 
ATOM     13  C   UNL     1       2.210   0.718   0.842  1.00  0.00     0.009 A 
ATOM     14  C   UNL     1       2.123  -1.238  -0.564  1.00  0.00     0.009 A 
ATOM     15  C   UNL     1       3.513   0.378   1.221  1.00  0.00     0.046 A 
ATOM     16  C   UNL     1       3.425  -1.577  -0.187  1.00  0.00     0.046 A 
ATOM     17  C   UNL     1       4.108  -0.765   0.708  1.00  0.00     0.115 A 
BRANCH  17  18
ATOM     18  O   UNL     1       5.380  -1.054   1.105  1.00  0.00    -0.508 OA
ATOM     19  H   UNL     1       5.666  -1.864   0.650  1.00  0.00     0.293 HD
ENDBRANCH  17  18
ENDBRANCH  10  12
BRANCH  10  20
ATOM     20  C   UNL     1      -0.942  -0.948  -0.354  1.00  0.00    -0.023 A 
ATOM     21  C   UNL     1      -0.911  -1.748   0.808  1.00  0.00     0.009 A 
ATOM     22  C   UNL     1      -1.926  -1.238  -1.319  1.00  0.00     0.009 A 
ATOM     23  C   UNL     1      -1.805  -2.806   0.984  1.00  0.00     0.046 A 
ATOM     24  C   UNL     1      -2.822  -2.299  -1.143  1.00  0.00     0.046 A 
ATOM     25  C   UNL     1      -2.751  -3.075   0.006  1.00  0.00     0.115 A 
BRANCH  25  26
ATOM     26  O   UNL     1      -3.605  -4.116   0.216  1.00  0.00    -0.508 OA
ATOM     27  H   UNL     1      -4.193  -4.192  -0.553  1.00  0.00     0.293 HD
ENDBRANCH  25  26
ENDBRANCH  10  20
TORSDOF 4
