REMARK SMILES COc1cc2c(cc1Cc1cccc(Cl)c1F)c(=O)c(C(=O)O)cn2[C@H](CO)C(C)C
REMARK SMILES IDX 3 1 4 2 5 3 6 4 7 5 8 6 18 7 19 8 20 9 24 10 25 11 2 12 1 13
REMARK SMILES IDX 9 14 10 15 11 16 16 17 12 18 14 19 17 20 13 21 15 22 26 23
REMARK SMILES IDX 27 24 28 25 29 27 30 28 31 29 21 30 22 31 23 32
REMARK H PARENT 28 26 23 33
REMARK Flexibility Score: inf
ROOT
ATOM      1  C   UNL     1       1.101  -0.987   1.146  1.00  0.00     0.124 A 
ATOM      2  C   UNL     1      -0.241  -0.798   0.766  1.00  0.00     0.073 A 
ATOM      3  C   UNL     1      -0.802   0.475   0.559  1.00  0.00     0.056 A 
ATOM      4  C   UNL     1       0.063   1.574   0.757  1.00  0.00     0.047 A 
ATOM      5  C   UNL     1       1.402   1.401   1.142  1.00  0.00     0.022 A 
ATOM      6  C   UNL     1       1.933   0.122   1.344  1.00  0.00    -0.001 A 
ATOM      7  C   UNL     1      -0.434   2.964   0.581  1.00  0.00     0.203 C 
ATOM      8  O   UNL     1       0.279   3.916   0.880  1.00  0.00    -0.288 OA
ATOM      9  C   UNL     1      -1.813   3.131   0.086  1.00  0.00     0.124 C 
ATOM     10  C   UNL     1      -2.548   2.019  -0.055  1.00  0.00     0.106 C 
ATOM     11  N   UNL     1      -2.146   0.702   0.173  1.00  0.00    -0.341 N 
ENDROOT
BRANCH   1  12
ATOM     12  O   UNL     1       1.681  -2.212   1.353  1.00  0.00    -0.496 OA
ATOM     13  C   UNL     1       0.912  -3.375   1.073  1.00  0.00     0.278 C 
ENDBRANCH   1  12
BRANCH   6  14
ATOM     14  C   UNL     1       3.389  -0.018   1.737  1.00  0.00     0.078 C 
BRANCH  14  15
ATOM     15  C   UNL     1       4.334   0.009   0.559  1.00  0.00    -0.006 A 
ATOM     16  C   UNL     1       4.587  -1.154  -0.185  1.00  0.00     0.007 A 
ATOM     17  C   UNL     1       4.956   1.201   0.172  1.00  0.00     0.145 A 
ATOM     18  C   UNL     1       5.448  -1.120  -1.285  1.00  0.00     0.002 A 
ATOM     19  C   UNL     1       5.815   1.238  -0.926  1.00  0.00     0.077 A 
ATOM     20  F   UNL     1       4.720   2.320   0.876  1.00  0.00    -0.205 F 
ATOM     21  C   UNL     1       6.063   0.076  -1.657  1.00  0.00     0.023 A 
ATOM     22  Cl  UNL     1       6.582   2.707  -1.394  1.00  0.00    -0.081 Cl
ENDBRANCH  14  15
ENDBRANCH   6  14
BRANCH  11  23
ATOM     23  C   UNL     1      -3.158  -0.397   0.008  1.00  0.00     0.115 C 
BRANCH  23  24
ATOM     24  C   UNL     1      -3.409  -1.141   1.344  1.00  0.00     0.181 C 
BRANCH  24  25
ATOM     25  O   UNL     1      -4.759  -1.600   1.424  1.00  0.00    -0.394 OA
ATOM     26  H   UNL     1      -4.892  -1.941   2.326  1.00  0.00     0.210 HD
ENDBRANCH  24  25
ENDBRANCH  23  24
BRANCH  23  27
ATOM     27  C   UNL     1      -2.884  -1.287  -1.241  1.00  0.00     0.008 C 
ATOM     28  C   UNL     1      -3.927  -2.398  -1.405  1.00  0.00     0.009 C 
ATOM     29  C   UNL     1      -2.849  -0.448  -2.527  1.00  0.00     0.009 C 
ENDBRANCH  23  27
ENDBRANCH  11  23
BRANCH   9  30
ATOM     30  C   UNL     1      -2.441   4.415  -0.245  1.00  0.00     0.341 C 
ATOM     31  O   UNL     1      -3.638   4.650  -0.211  1.00  0.00    -0.246 OA
BRANCH  30  32
ATOM     32  O   UNL     1      -1.572   5.340  -0.678  1.00  0.00    -0.477 OA
ATOM     33  H   UNL     1      -2.111   6.139  -0.844  1.00  0.00     0.297 HD
ENDBRANCH  30  32
ENDBRANCH   9  30
TORSDOF 9
