REMARK SMILES Cc1ncccc1-c1cc2c(n3cnnc13)NCc1c(F)ccc3c1[C@@H](CO3)CO2
REMARK SMILES IDX 8 1 9 2 10 3 11 4 12 5 13 6 14 7 15 8 16 9 7 10 1 11 2 12
REMARK SMILES IDX 3 13 4 14 6 15 5 16 30 17 29 18 17 20 18 22 19 23 25 24
REMARK SMILES IDX 20 25 26 26 24 27 22 28 21 29 27 30 28 32 23 33
REMARK H PARENT 17 21
REMARK Flexibility Score: 80.00
ROOT
ATOM      1  C   UNL     1       2.533   0.125   0.230  1.00  0.00     0.033 C 
ATOM      2  C   UNL     1       1.482  -0.412  -0.428  1.00  0.00     0.063 C 
ATOM      3  C   UNL     1       0.104  -0.109  -0.071  1.00  0.00     0.160 C 
ATOM      4  C   UNL     1      -0.183   0.761   0.932  1.00  0.00     0.156 C 
ATOM      5  N   UNL     1       0.935   1.314   1.602  1.00  0.00    -0.264 N 
ATOM      6  C   UNL     1       1.010   2.190   2.654  1.00  0.00     0.232 A 
ATOM      7  N   UNL     1       2.262   2.421   2.975  1.00  0.00    -0.138 NA
ATOM      8  N   UNL     1       3.051   1.687   2.124  1.00  0.00    -0.130 NA
ATOM      9  C   UNL     1       2.261   1.025   1.304  1.00  0.00     0.170 A 
ENDROOT
BRANCH   1  10
ATOM     10  C   UNL     1       3.889  -0.241  -0.220  1.00  0.00     0.007 A 
ATOM     11  C   UNL     1       4.162   1.907  -1.545  1.00  0.00     0.067 C 
ATOM     12  C   UNL     1       4.659   0.573  -1.063  1.00  0.00     0.045 A 
ATOM     13  N   UNL     1       5.896   0.213  -1.499  1.00  0.00    -0.261 NA
ATOM     14  C   UNL     1       6.392  -0.968  -1.074  1.00  0.00     0.111 A 
ATOM     15  C   UNL     1       4.440  -1.462   0.193  1.00  0.00     0.012 A 
ATOM     16  C   UNL     1       5.711  -1.831  -0.237  1.00  0.00     0.021 A 
ENDBRANCH   1  10
BRANCH   3  17
ATOM     17  O   UNL     1      -0.829  -0.641  -0.928  1.00  0.00    -0.489 OA
BRANCH  17  18
ATOM     18  C   UNL     1      -1.381  -1.861  -0.432  1.00  0.00     0.241 CG0
ATOM     19  G   UNL     1      -2.885  -1.887  -0.675  1.00  0.00     0.000 G0
ENDBRANCH  17  18
ENDBRANCH   3  17
BRANCH   4  20
ATOM     20  N   UNL     1      -1.462   1.172   1.309  1.00  0.00    -0.364 N 
ATOM     21  H   UNL     1      -1.512   2.073   1.776  1.00  0.00     0.162 HD
BRANCH  20  22
ATOM     22  C   UNL     1      -2.566   0.301   1.683  1.00  0.00     0.154 C 
BRANCH  22  23
ATOM     23  C   UNL     1      -3.620   0.293   0.621  1.00  0.00     0.014 A 
ATOM     24  C   UNL     1      -3.686  -0.656  -0.395  1.00  0.00     0.012 A 
ATOM     25  C   UNL     1      -4.587   1.312   0.603  1.00  0.00     0.128 A 
ATOM     26  C   UNL     1      -2.885  -1.887  -0.675  1.00  0.00     0.099 CG0
ATOM     27  C   UNL     1      -4.671  -0.563  -1.380  1.00  0.00     0.123 A 
ATOM     28  C   UNL     1      -5.588   1.379  -0.374  1.00  0.00     0.043 A 
ATOM     29  F   UNL     1      -4.567   2.256   1.558  1.00  0.00    -0.207 F 
ATOM     30  C   UNL     1      -3.244  -2.047  -2.157  1.00  0.00     0.241 C 
ATOM     31  G   UNL     1      -1.381  -1.861  -0.432  1.00  0.00     0.000 G0
ATOM     32  O   UNL     1      -4.584  -1.538  -2.344  1.00  0.00    -0.493 OA
ATOM     33  C   UNL     1      -5.636   0.425  -1.386  1.00  0.00     0.050 A 
ENDBRANCH  22  23
ENDBRANCH  20  22
ENDBRANCH   4  20
TORSDOF 1
