REMARK SMILES CC(C)N(CCC(C(N)=O)(c1ccccc1)c1ccccn1)C(C)C
REMARK SMILES IDX 5 1 4 2 2 3 1 4 3 5 23 6 24 7 25 8 6 9 7 10 8 11 9 12 10 13
REMARK SMILES IDX 11 16 12 17 16 18 13 19 15 20 14 21 17 22 18 23 22 24 19 25
REMARK SMILES IDX 21 26 20 27
REMARK H PARENT 9 14 9 15
REMARK Flexibility Score: inf
ROOT
ATOM      1  C   UNL     1      -0.818   0.257   0.093  1.00  0.00     0.087 C 
ENDROOT
BRANCH   1   2
ATOM      2  N   UNL     1      -2.262   0.320  -0.223  1.00  0.00    -0.298 NA
BRANCH   2   3
ATOM      3  C   UNL     1      -3.005  -0.958  -0.246  1.00  0.00     0.050 C 
ATOM      4  C   UNL     1      -3.122  -1.457  -1.691  1.00  0.00     0.024 C 
ATOM      5  C   UNL     1      -2.498  -2.077   0.673  1.00  0.00     0.024 C 
ENDBRANCH   2   3
BRANCH   2   6
ATOM      6  C   UNL     1      -2.929   1.415   0.519  1.00  0.00     0.050 C 
ATOM      7  C   UNL     1      -3.181   1.120   2.001  1.00  0.00     0.024 C 
ATOM      8  C   UNL     1      -4.226   1.857  -0.175  1.00  0.00     0.024 C 
ENDBRANCH   2   6
ENDBRANCH   1   2
BRANCH   1   9
ATOM      9  C   UNL     1       0.033  -0.375  -1.026  1.00  0.00     0.044 C 
BRANCH   9  10
ATOM     10  C   UNL     1       1.594  -0.306  -0.824  1.00  0.00     0.117 C 
BRANCH  10  11
ATOM     11  C   UNL     1       2.204  -1.235  -1.939  1.00  0.00     0.234 C 
ATOM     12  N   UNL     1       3.466  -1.737  -1.739  1.00  0.00    -0.369 N 
ATOM     13  O   UNL     1       1.641  -1.513  -2.998  1.00  0.00    -0.274 OA
ATOM     14  H   UNL     1       3.782  -2.401  -2.436  1.00  0.00     0.159 HD
ATOM     15  H   UNL     1       3.847  -1.834  -0.806  1.00  0.00     0.159 HD
ENDBRANCH  10  11
BRANCH  10  16
ATOM     16  C   UNL     1       1.918  -0.860   0.595  1.00  0.00    -0.026 A 
ATOM     17  C   UNL     1       2.314  -0.024   1.655  1.00  0.00     0.005 A 
ATOM     18  C   UNL     1       1.744  -2.232   0.875  1.00  0.00     0.005 A 
ATOM     19  C   UNL     1       2.573  -0.545   2.925  1.00  0.00     0.000 A 
ATOM     20  C   UNL     1       2.004  -2.750   2.145  1.00  0.00     0.000 A 
ATOM     21  C   UNL     1       2.425  -1.907   3.168  1.00  0.00     0.000 A 
ENDBRANCH  10  16
BRANCH  10  22
ATOM     22  C   UNL     1       2.143   1.121  -1.095  1.00  0.00     0.060 A 
ATOM     23  C   UNL     1       3.519   1.384  -1.100  1.00  0.00     0.025 A 
ATOM     24  N   UNL     1       1.254   2.124  -1.312  1.00  0.00    -0.260 NA
ATOM     25  C   UNL     1       3.978   2.678  -1.346  1.00  0.00     0.004 A 
ATOM     26  C   UNL     1       1.721   3.368  -1.556  1.00  0.00     0.111 A 
ATOM     27  C   UNL     1       3.062   3.692  -1.583  1.00  0.00     0.020 A 
ENDBRANCH  10  22
ENDBRANCH   9  10
ENDBRANCH   1   9
TORSDOF 8
