REMARK SMILES Cc1[nH]c2ccccc2c1CCNCc1ccc(/C=C/C(=O)NO)cc1
REMARK SMILES IDX 14 1 13 2 12 4 11 5 10 6 1 7 2 8 3 9 4 10 9 12 5 13 8 14
REMARK SMILES IDX 6 15 7 16 15 17 16 18 26 19 17 20 25 21 18 22 19 23 20 24
REMARK SMILES IDX 21 25 22 26 23 27 24 29
REMARK H PARENT 13 3 3 11 23 28 24 30
REMARK Flexibility Score: inf
ROOT
ATOM      1  C   UNL     1       0.474  -0.169  -1.287  1.00  0.00     0.116 C 
ENDROOT
BRANCH   1   2
ATOM      2  N   UNL     1      -0.348   0.253  -0.153  1.00  0.00    -0.312 NA
ATOM      3  H   UNL     1      -0.142  -0.352   0.642  1.00  0.00     0.123 HD
BRANCH   2   4
ATOM      4  C   UNL     1      -1.776   0.168  -0.480  1.00  0.00     0.086 C 
BRANCH   4   5
ATOM      5  C   UNL     1      -2.635   0.623   0.708  1.00  0.00     0.053 C 
BRANCH   5   6
ATOM      6  C   UNL     1      -4.101   0.525   0.411  1.00  0.00    -0.018 A 
ATOM      7  C   UNL     1      -4.611   2.946  -0.424  1.00  0.00     0.064 C 
ATOM      8  C   UNL     1      -4.918   1.535  -0.074  1.00  0.00     0.016 A 
ATOM      9  N   UNL     1      -6.185   1.023  -0.202  1.00  0.00    -0.358 N 
ATOM     10  C   UNL     1      -6.214  -0.297   0.179  1.00  0.00     0.046 A 
ATOM     11  H   UNL     1      -6.990   1.537  -0.531  1.00  0.00     0.166 HD
ATOM     12  C   UNL     1      -4.922  -0.639   0.572  1.00  0.00     0.003 A 
ATOM     13  C   UNL     1      -7.281  -1.204   0.206  1.00  0.00     0.026 A 
ATOM     14  C   UNL     1      -4.682  -1.956   1.016  1.00  0.00     0.010 A 
ATOM     15  C   UNL     1      -7.016  -2.503   0.649  1.00  0.00     0.002 A 
ATOM     16  C   UNL     1      -5.736  -2.877   1.049  1.00  0.00     0.001 A 
ENDBRANCH   5   6
ENDBRANCH   4   5
ENDBRANCH   2   4
ENDBRANCH   1   2
BRANCH   1  17
ATOM     17  C   UNL     1       1.940  -0.141  -0.924  1.00  0.00    -0.034 A 
ATOM     18  C   UNL     1       2.664  -1.329  -0.769  1.00  0.00     0.005 A 
ATOM     19  C   UNL     1       2.595   1.080  -0.717  1.00  0.00     0.005 A 
ATOM     20  C   UNL     1       4.021  -1.294  -0.428  1.00  0.00     0.008 A 
ATOM     21  C   UNL     1       3.951   1.114  -0.377  1.00  0.00     0.008 A 
ATOM     22  C   UNL     1       4.681  -0.073  -0.243  1.00  0.00    -0.025 A 
BRANCH  22  23
ATOM     23  C   UNL     1       6.098  -0.084   0.146  1.00  0.00     0.014 C 
ATOM     24  C   UNL     1       6.992   0.815  -0.297  1.00  0.00     0.074 C 
BRANCH  24  25
ATOM     25  C   UNL     1       8.430   0.791   0.058  1.00  0.00     0.267 C 
ATOM     26  O   UNL     1       9.270   1.298  -0.681  1.00  0.00    -0.268 OA
ATOM     27  N   UNL     1       8.743   0.261   1.281  1.00  0.00    -0.234 N 
ATOM     28  H   UNL     1       8.054   0.152   2.016  1.00  0.00     0.199 HD
BRANCH  27  29
ATOM     29  O   UNL     1      10.079   0.460   1.705  1.00  0.00    -0.288 OA
ATOM     30  H   UNL     1      10.477   0.922   0.934  1.00  0.00     0.246 HD
ENDBRANCH  27  29
ENDBRANCH  24  25
ENDBRANCH  22  23
ENDBRANCH   1  17
TORSDOF 8
