REMARK SMILES CC#Cc1cncc(-c2ccc3c(c2)[C@@]2(N=C(C)C(N)=N2)[C@]2(CC[C@H](OC)CC2)C3)c1
REMARK SMILES IDX 25 1 28 2 29 3 22 4 30 5 12 6 11 7 10 8 9 9 14 10 13 11
REMARK SMILES IDX 15 12 16 13 17 14 18 15 19 16 20 17 21 18 23 19 24 20 26 23
REMARK SMILES IDX 27 24 8 25 31 26 7 27 4 28 6 29 5 30 3 31 2 32 1 33
REMARK H PARENT 20 21 20 22
REMARK Flexibility Score: inf
ROOT
ATOM      1  C   UNL     1      -5.123  -0.199   0.594  1.00  0.00     0.117 C 
ATOM      2  C   UNL     1      -4.551   0.321  -0.734  1.00  0.00     0.033 C 
ATOM      3  C   UNL     1      -3.426   1.326  -0.498  1.00  0.00     0.015 C 
ATOM      4  C   UNL     1      -2.196   0.678   0.197  1.00  0.00     0.025 C 
ATOM      5  C   UNL     1      -1.442   1.770   1.029  1.00  0.00     0.048 C 
ATOM      6  C   UNL     1      -0.053   1.210   1.101  1.00  0.00    -0.040 A 
ATOM      7  C   UNL     1       0.953   1.527   1.994  1.00  0.00     0.005 A 
ATOM      8  C   UNL     1       2.186   0.880   1.861  1.00  0.00     0.009 A 
ATOM      9  C   UNL     1       2.421  -0.071   0.839  1.00  0.00    -0.016 A 
ATOM     10  C   UNL     1       1.381  -0.359  -0.062  1.00  0.00     0.017 A 
ATOM     11  C   UNL     1       0.156   0.279   0.079  1.00  0.00     0.006 A 
ATOM     12  C   UNL     1      -1.073   0.163  -0.795  1.00  0.00     0.184 C 
ATOM     13  N   UNL     1      -1.337  -1.218  -1.263  1.00  0.00    -0.251 NA
ATOM     14  C   UNL     1      -1.301  -1.101  -2.548  1.00  0.00     0.077 C 
ATOM     15  C   UNL     1      -1.490  -2.200  -3.527  1.00  0.00     0.070 C 
ATOM     16  C   UNL     1      -1.057   0.301  -2.985  1.00  0.00     0.142 C 
ATOM     17  N   UNL     1      -0.997   0.715  -4.280  1.00  0.00    -0.382 N 
ATOM     18  N   UNL     1      -0.932   1.076  -1.964  1.00  0.00    -0.232 NA
ATOM     19  C   UNL     1      -2.674  -0.460   1.172  1.00  0.00     0.015 C 
ATOM     20  C   UNL     1      -4.075  -0.197   1.717  1.00  0.00     0.033 C 
ATOM     21  H   UNL     1      -1.576   0.228  -4.952  1.00  0.00     0.158 HD
ATOM     22  H   UNL     1      -1.051   1.726  -4.364  1.00  0.00     0.158 HD
ENDROOT
BRANCH   1  23
ATOM     23  O   UNL     1      -6.231   0.640   0.949  1.00  0.00    -0.381 OA
ATOM     24  C   UNL     1      -7.065   0.077   1.953  1.00  0.00     0.195 C 
ENDBRANCH   1  23
BRANCH   9  25
ATOM     25  C   UNL     1       3.726  -0.738   0.719  1.00  0.00     0.001 A 
ATOM     26  C   UNL     1       4.927  -0.015   0.689  1.00  0.00     0.029 A 
ATOM     27  C   UNL     1       3.836  -2.128   0.628  1.00  0.00     0.119 A 
ATOM     28  C   UNL     1       6.148  -0.681   0.571  1.00  0.00     0.043 A 
ATOM     29  N   UNL     1       5.003  -2.810   0.511  1.00  0.00    -0.263 NA
ATOM     30  C   UNL     1       6.132  -2.065   0.486  1.00  0.00     0.128 A 
BRANCH  28  31
ATOM     31  C   UNL     1       7.377   0.046   0.537  1.00  0.00    -0.066 C 
ATOM     32  C   UNL     1       8.411   0.658   0.508  1.00  0.00    -0.101 C 
ATOM     33  C   UNL     1       9.668   1.404   0.473  1.00  0.00     0.107 C 
ENDBRANCH  28  31
ENDBRANCH   9  25
TORSDOF 3
