REMARK SMILES Cc1cccc(N2CC(CO)OC2=O)c1
REMARK SMILES IDX 7 1 8 2 9 3 12 4 13 5 14 6 6 7 1 8 2 9 3 10 15 11 4 12 5 13
REMARK SMILES IDX 10 14 11 15
REMARK H PARENT 11 16
REMARK Flexibility Score: inf
ROOT
ATOM      1  N   UNL     1       0.720  -0.573   0.107  1.00  0.00    -0.274 N 
ATOM      2  C   UNL     1       1.388   0.669   0.352  1.00  0.00     0.177 C 
ATOM      3  C   UNL     1       2.845   0.277   0.379  1.00  0.00     0.224 C 
ATOM      4  O   UNL     1       2.837  -1.128   0.668  1.00  0.00    -0.441 OA
ATOM      5  C   UNL     1       1.591  -1.622   0.367  1.00  0.00     0.414 C 
ATOM      6  O   UNL     1       1.372  -2.822   0.376  1.00  0.00    -0.224 OA
ENDROOT
BRANCH   1   7
ATOM      7  C   UNL     1      -0.663  -0.662  -0.206  1.00  0.00     0.047 A 
ATOM      8  C   UNL     1      -3.654   1.690  -0.612  1.00  0.00     0.044 C 
ATOM      9  C   UNL     1      -2.826   0.438  -0.590  1.00  0.00    -0.049 A 
ATOM     10  C   UNL     1      -3.417  -0.803  -0.830  1.00  0.00     0.003 A 
ATOM     11  C   UNL     1      -1.459   0.496  -0.269  1.00  0.00     0.030 A 
ATOM     12  C   UNL     1      -2.647  -1.960  -0.775  1.00  0.00     0.002 A 
ATOM     13  C   UNL     1      -1.284  -1.889  -0.470  1.00  0.00     0.026 A 
ENDBRANCH   1   7
BRANCH   3  14
ATOM     14  C   UNL     1       3.642   1.006   1.452  1.00  0.00     0.203 C 
BRANCH  14  15
ATOM     15  O   UNL     1       5.017   0.637   1.372  1.00  0.00    -0.392 OA
ATOM     16  H   UNL     1       5.049  -0.338   1.419  1.00  0.00     0.210 HD
ENDBRANCH  14  15
ENDBRANCH   3  14
TORSDOF 3
