REMARK SMILES CCCN(CCC)CCc1cccc2c1CC(=O)N2
REMARK SMILES IDX 8 1 4 2 3 3 2 4 1 5 5 6 6 7 7 8 9 9 10 10 11 11 15 12 12 13
REMARK SMILES IDX 14 14 16 15 13 16 19 17 17 18 18 20
REMARK H PARENT 19 19
REMARK Flexibility Score: inf
ROOT
ATOM      1  C   UNL     1       0.247   0.399  -0.275  1.00  0.00     0.089 C 
ENDROOT
BRANCH   1   2
ATOM      2  N   UNL     1       1.642   0.080   0.103  1.00  0.00    -0.303 NA
BRANCH   2   3
ATOM      3  C   UNL     1       2.583   0.551  -0.934  1.00  0.00     0.084 C 
BRANCH   3   4
ATOM      4  C   UNL     1       2.862   2.054  -0.801  1.00  0.00     0.012 C 
ATOM      5  C   UNL     1       3.876   2.520  -1.835  1.00  0.00     0.005 C 
ENDBRANCH   3   4
ENDBRANCH   2   3
BRANCH   2   6
ATOM      6  C   UNL     1       1.797  -1.373   0.325  1.00  0.00     0.084 C 
BRANCH   6   7
ATOM      7  C   UNL     1       2.991  -1.679   1.239  1.00  0.00     0.012 C 
ATOM      8  C   UNL     1       3.106  -3.172   1.513  1.00  0.00     0.005 C 
ENDBRANCH   6   7
ENDBRANCH   2   6
ENDBRANCH   1   2
BRANCH   1   9
ATOM      9  C   UNL     1      -0.676   0.476   0.954  1.00  0.00     0.051 C 
BRANCH   9  10
ATOM     10  C   UNL     1      -2.094   0.808   0.562  1.00  0.00    -0.041 A 
ATOM     11  C   UNL     1      -2.528   2.143   0.500  1.00  0.00     0.004 A 
ATOM     12  C   UNL     1      -3.015  -0.174   0.221  1.00  0.00    -0.012 A 
ATOM     13  C   UNL     1      -3.843   2.469   0.116  1.00  0.00     0.002 A 
ATOM     14  C   UNL     1      -4.315   0.166  -0.159  1.00  0.00     0.045 A 
ATOM     15  C   UNL     1      -2.870  -1.669   0.178  1.00  0.00     0.138 C 
ATOM     16  C   UNL     1      -4.757   1.469  -0.220  1.00  0.00     0.026 A 
ATOM     17  N   UNL     1      -5.036  -0.981  -0.449  1.00  0.00    -0.326 N 
ATOM     18  C   UNL     1      -4.261  -2.120  -0.279  1.00  0.00     0.228 C 
ATOM     19  H   UNL     1      -5.998  -1.013  -0.748  1.00  0.00     0.169 HD
ATOM     20  O   UNL     1      -4.630  -3.268  -0.464  1.00  0.00    -0.274 OA
ENDBRANCH   9  10
ENDBRANCH   1   9
TORSDOF 7
