REMARK SMILES OC(CNc1nc(-c2cc(-c3ccon3)n(Cc3ccccc3F)n2)ncc1F)(C(F)(F)F)C(F)(F)F
REMARK SMILES IDX 5 1 6 2 7 3 26 4 27 5 28 6 29 7 4 8 3 10 2 11 1 12 30 14
REMARK SMILES IDX 31 15 32 16 33 17 34 18 35 19 36 20 37 21 8 22 25 23 9 24
REMARK SMILES IDX 16 25 10 26 17 27 18 28 23 29 19 30 24 31 22 32 20 33 21 34
REMARK SMILES IDX 11 35 15 36 12 37 14 38 13 39
REMARK H PARENT 4 9 1 13
REMARK Flexibility Score: inf
ROOT
ATOM      1  C   UNL     1       2.267  -1.743   2.863  1.00  0.00     0.166 A 
ATOM      2  N   UNL     1       1.456  -0.907   2.193  1.00  0.00    -0.206 NA
ATOM      3  C   UNL     1       0.147  -1.235   2.112  1.00  0.00     0.182 A 
ATOM      4  N   UNL     1      -0.414  -2.327   2.674  1.00  0.00    -0.232 NA
ATOM      5  C   UNL     1       0.426  -3.138   3.342  1.00  0.00     0.156 A 
ATOM      6  C   UNL     1       1.773  -2.894   3.461  1.00  0.00     0.183 A 
ATOM      7  F   UNL     1       2.565  -3.730   4.147  1.00  0.00    -0.201 F 
ENDROOT
BRANCH   1   8
ATOM      8  N   UNL     1       3.652  -1.484   2.925  1.00  0.00    -0.364 N 
ATOM      9  H   UNL     1       3.968  -1.635   3.883  1.00  0.00     0.162 HD
BRANCH   8  10
ATOM     10  C   UNL     1       4.123  -0.219   2.343  1.00  0.00     0.169 C 
BRANCH  10  11
ATOM     11  C   UNL     1       4.544  -0.326   0.864  1.00  0.00     0.274 C 
BRANCH  11  12
ATOM     12  O   UNL     1       3.424  -0.731   0.018  1.00  0.00    -0.372 OA
ATOM     13  H   UNL     1       3.749  -0.802  -0.900  1.00  0.00     0.212 HD
ENDBRANCH  11  12
BRANCH  11  14
ATOM     14  C   UNL     1       5.049   1.044   0.441  1.00  0.00     0.428 C 
ATOM     15  F   UNL     1       6.107   1.460   1.169  1.00  0.00    -0.167 F 
ATOM     16  F   UNL     1       5.413   1.062  -0.861  1.00  0.00    -0.167 F 
ATOM     17  F   UNL     1       4.086   1.986   0.586  1.00  0.00    -0.167 F 
ENDBRANCH  11  14
BRANCH  11  18
ATOM     18  C   UNL     1       5.731  -1.258   0.701  1.00  0.00     0.428 C 
ATOM     19  F   UNL     1       6.154  -1.280  -0.588  1.00  0.00    -0.167 F 
ATOM     20  F   UNL     1       5.435  -2.540   1.015  1.00  0.00    -0.167 F 
ATOM     21  F   UNL     1       6.785  -0.898   1.464  1.00  0.00    -0.167 F 
ENDBRANCH  11  18
ENDBRANCH  10  11
ENDBRANCH   8  10
ENDBRANCH   1   8
BRANCH   3  22
ATOM     22  C   UNL     1      -0.713  -0.324   1.336  1.00  0.00     0.130 A 
ATOM     23  N   UNL     1      -2.056  -0.407   1.305  1.00  0.00    -0.169 NA
ATOM     24  C   UNL     1      -0.276   0.754   0.521  1.00  0.00     0.064 A 
ATOM     25  N   UNL     1      -2.453   0.581   0.470  1.00  0.00    -0.258 N 
ATOM     26  C   UNL     1      -1.411   1.323  -0.017  1.00  0.00     0.091 A 
BRANCH  25  27
ATOM     27  C   UNL     1      -3.885   0.719   0.226  1.00  0.00     0.183 C 
BRANCH  27  28
ATOM     28  C   UNL     1      -4.327   0.097  -1.074  1.00  0.00     0.009 A 
ATOM     29  C   UNL     1      -5.278   0.750  -1.864  1.00  0.00     0.128 A 
ATOM     30  C   UNL     1      -3.878  -1.165  -1.494  1.00  0.00     0.008 A 
ATOM     31  F   UNL     1      -5.757   1.941  -1.478  1.00  0.00    -0.207 F 
ATOM     32  C   UNL     1      -5.744   0.199  -3.055  1.00  0.00     0.039 A 
ATOM     33  C   UNL     1      -4.340  -1.725  -2.689  1.00  0.00     0.001 A 
ATOM     34  C   UNL     1      -5.269  -1.042  -3.472  1.00  0.00     0.003 A 
ENDBRANCH  27  28
ENDBRANCH  25  27
BRANCH  26  35
ATOM     35  C   UNL     1      -1.397   2.551  -0.980  1.00  0.00     0.131 A 
ATOM     36  N   UNL     1      -0.232   3.106  -1.343  1.00  0.00    -0.078 NA
ATOM     37  C   UNL     1      -2.480   3.231  -1.574  1.00  0.00     0.075 A 
ATOM     38  O   UNL     1      -0.551   4.152  -2.187  1.00  0.00    -0.364 OA
ATOM     39  C   UNL     1      -1.895   4.221  -2.320  1.00  0.00     0.231 A 
ENDBRANCH  26  35
ENDBRANCH   3  22
TORSDOF 10
