REMARK SMILES CCCCC1=NC2(CCCC2)C(=O)N1Cc1ccc(-c2ccccc2-c2nnn[nH]2)cc1
REMARK SMILES IDX 5 1 6 2 7 3 8 4 9 5 10 6 11 7 12 8 13 9 14 10 4 11 3 12 2 13
REMARK SMILES IDX 1 14 15 15 16 16 17 17 32 18 18 19 31 20 19 21 20 22 21 23
REMARK SMILES IDX 25 24 22 25 24 26 23 27 26 28 27 29 30 30 28 31 29 32
REMARK H PARENT 30 33
REMARK Flexibility Score: inf
ROOT
ATOM      1  C   UNL     1      -2.393   0.638   0.521  1.00  0.00     0.107 C 
ATOM      2  N   UNL     1      -3.194   1.195  -0.337  1.00  0.00    -0.256 NA
ATOM      3  C   UNL     1      -2.717   2.597  -0.461  1.00  0.00     0.141 C 
ATOM      4  C   UNL     1      -3.840   3.571  -0.096  1.00  0.00     0.041 C 
ATOM      5  C   UNL     1      -4.338   4.094  -1.439  1.00  0.00     0.003 C 
ATOM      6  C   UNL     1      -3.072   4.170  -2.274  1.00  0.00     0.003 C 
ATOM      7  C   UNL     1      -2.321   2.892  -1.912  1.00  0.00     0.041 C 
ATOM      8  C   UNL     1      -1.535   2.670   0.488  1.00  0.00     0.256 C 
ATOM      9  O   UNL     1      -0.836   3.649   0.715  1.00  0.00    -0.272 OA
ATOM     10  N   UNL     1      -1.415   1.416   1.024  1.00  0.00    -0.294 N 
ENDROOT
BRANCH   1  11
ATOM     11  C   UNL     1      -2.533  -0.807   0.943  1.00  0.00     0.075 C 
BRANCH  11  12
ATOM     12  C   UNL     1      -3.787  -1.487   0.395  1.00  0.00     0.008 C 
BRANCH  12  13
ATOM     13  C   UNL     1      -3.921  -2.917   0.929  1.00  0.00    -0.003 C 
ATOM     14  C   UNL     1      -5.141  -3.615   0.349  1.00  0.00     0.004 C 
ENDBRANCH  12  13
ENDBRANCH  11  12
ENDBRANCH   1  11
BRANCH  10  15
ATOM     15  C   UNL     1      -0.349   1.066   1.948  1.00  0.00     0.162 C 
BRANCH  15  16
ATOM     16  C   UNL     1       0.847   0.481   1.228  1.00  0.00    -0.028 A 
ATOM     17  C   UNL     1       1.096  -0.897   1.260  1.00  0.00     0.006 A 
ATOM     18  C   UNL     1       1.708   1.304   0.488  1.00  0.00     0.006 A 
ATOM     19  C   UNL     1       2.173  -1.440   0.554  1.00  0.00     0.009 A 
ATOM     20  C   UNL     1       2.791   0.760  -0.210  1.00  0.00     0.009 A 
ATOM     21  C   UNL     1       3.042  -0.621  -0.184  1.00  0.00    -0.018 A 
BRANCH  21  22
ATOM     22  C   UNL     1       4.194  -1.202  -0.900  1.00  0.00    -0.007 A 
ATOM     23  C   UNL     1       4.250  -1.095  -2.307  1.00  0.00     0.009 A 
ATOM     24  C   UNL     1       5.231  -1.895  -0.235  1.00  0.00     0.028 A 
ATOM     25  C   UNL     1       5.287  -1.678  -3.035  1.00  0.00     0.001 A 
ATOM     26  C   UNL     1       6.253  -2.504  -0.983  1.00  0.00     0.013 A 
ATOM     27  C   UNL     1       6.284  -2.391  -2.374  1.00  0.00     0.001 A 
BRANCH  24  28
ATOM     28  C   UNL     1       5.298  -1.988   1.217  1.00  0.00     0.180 A 
ATOM     29  N   UNL     1       5.455  -3.071   1.963  1.00  0.00    -0.109 NA
ATOM     30  N   UNL     1       5.235  -0.916   2.064  1.00  0.00    -0.239 N 
ATOM     31  N   UNL     1       5.470  -2.635   3.265  1.00  0.00    -0.024 NA
ATOM     32  N   UNL     1       5.349  -1.319   3.335  1.00  0.00    -0.048 NA
ATOM     33  H   UNL     1       5.155   0.068   1.845  1.00  0.00     0.194 HD
ENDBRANCH  24  28
ENDBRANCH  21  22
ENDBRANCH  15  16
ENDBRANCH  10  15
TORSDOF 7
