REMARK SMILES CN(C)CCc1c[nH]c2ccc(CS(=O)(=O)N3CCCC3)cc12
REMARK SMILES IDX 6 1 7 2 8 3 9 4 10 5 11 6 12 7 22 8 23 9 5 11 4 12 2 13 1 14
REMARK SMILES IDX 3 15 13 16 14 17 15 18 16 19 17 20 18 21 21 22 19 23 20 24
REMARK H PARENT 8 10
REMARK Flexibility Score: inf
ROOT
ATOM      1  C   UNL     1      -2.784  -0.124   1.866  1.00  0.00    -0.021 A 
ATOM      2  C   UNL     1      -3.231  -0.478   3.124  1.00  0.00     0.087 A 
ATOM      3  N   UNL     1      -2.239  -1.181   3.751  1.00  0.00    -0.361 N 
ATOM      4  C   UNL     1      -1.146  -1.302   2.925  1.00  0.00     0.046 A 
ATOM      5  C   UNL     1       0.086  -1.927   3.146  1.00  0.00     0.027 A 
ATOM      6  C   UNL     1       1.029  -1.888   2.113  1.00  0.00     0.007 A 
ATOM      7  C   UNL     1       0.755  -1.250   0.896  1.00  0.00    -0.031 A 
ATOM      8  C   UNL     1      -0.491  -0.623   0.708  1.00  0.00     0.015 A 
ATOM      9  C   UNL     1      -1.458  -0.648   1.735  1.00  0.00     0.003 A 
ATOM     10  H   UNL     1      -2.292  -1.557   4.688  1.00  0.00     0.166 HD
ENDROOT
BRANCH   1  11
ATOM     11  C   UNL     1      -3.541   0.666   0.841  1.00  0.00     0.053 C 
BRANCH  11  12
ATOM     12  C   UNL     1      -4.194  -0.240  -0.221  1.00  0.00     0.088 C 
BRANCH  12  13
ATOM     13  N   UNL     1      -4.948   0.423  -1.302  1.00  0.00    -0.309 NA
ATOM     14  C   UNL     1      -4.103   1.270  -2.138  1.00  0.00     0.104 C 
ATOM     15  C   UNL     1      -6.105   1.163  -0.807  1.00  0.00     0.104 C 
ENDBRANCH  12  13
ENDBRANCH  11  12
ENDBRANCH   1  11
BRANCH   7  16
ATOM     16  C   UNL     1       1.786  -1.225  -0.203  1.00  0.00     0.189 C 
BRANCH  16  17
ATOM     17  S   UNL     1       2.817   0.238  -0.021  1.00  0.00     0.218 S 
ATOM     18  O   UNL     1       2.021   1.420  -0.286  1.00  0.00    -0.212 OA
ATOM     19  O   UNL     1       3.633   0.132   1.172  1.00  0.00    -0.212 OA
BRANCH  17  20
ATOM     20  N   UNL     1       3.872   0.064  -1.347  1.00  0.00    -0.202 NA
ATOM     21  C   UNL     1       4.847  -1.060  -1.310  1.00  0.00     0.102 C 
ATOM     22  C   UNL     1       4.609   1.303  -1.720  1.00  0.00     0.102 C 
ATOM     23  C   UNL     1       6.209  -0.426  -1.559  1.00  0.00     0.018 C 
ATOM     24  C   UNL     1       5.873   0.793  -2.394  1.00  0.00     0.018 C 
ENDBRANCH  17  20
ENDBRANCH  16  17
ENDBRANCH   7  16
TORSDOF 6
