REMARK SMILES CC(c1ccc(Cl)c(Cl)c1)N1N=C(N)CC1=O
REMARK SMILES IDX 1 1 2 2 3 3 4 4 10 5 5 6 8 7 6 8 9 9 7 10 11 11 12 12 16 13
REMARK SMILES IDX 13 14 15 15 17 16 14 17
REMARK H PARENT 14 18 14 19
REMARK Flexibility Score: inf
ROOT
ATOM      1  C   UNL     1       0.171  -2.491  -0.701  1.00  0.00     0.039 C 
ATOM      2  C   UNL     1      -0.047  -1.007  -1.011  1.00  0.00     0.138 C 
ENDROOT
BRANCH   2   3
ATOM      3  C   UNL     1       1.182  -0.158  -0.706  1.00  0.00    -0.022 A 
ATOM      4  C   UNL     1       1.723   0.675  -1.696  1.00  0.00     0.007 A 
ATOM      5  C   UNL     1       1.774  -0.157   0.569  1.00  0.00     0.028 A 
ATOM      6  C   UNL     1       2.839   1.473  -1.426  1.00  0.00     0.022 A 
ATOM      7  C   UNL     1       2.890   0.642   0.843  1.00  0.00     0.060 A 
ATOM      8  C   UNL     1       3.426   1.457  -0.158  1.00  0.00     0.059 A 
ATOM      9  Cl  UNL     1       3.550   0.580   2.439  1.00  0.00    -0.083 Cl
ATOM     10  Cl  UNL     1       4.800   2.470   0.105  1.00  0.00    -0.083 Cl
ENDBRANCH   2   3
BRANCH   2  11
ATOM     11  N   UNL     1      -1.224  -0.465  -0.345  1.00  0.00    -0.224 N 
ATOM     12  N   UNL     1      -1.525  -0.763   0.969  1.00  0.00    -0.156 NA
ATOM     13  C   UNL     1      -2.025   0.531  -0.899  1.00  0.00     0.250 C 
ATOM     14  C   UNL     1      -2.545  -0.026   1.289  1.00  0.00     0.129 C 
ATOM     15  C   UNL     1      -3.009   0.873   0.177  1.00  0.00     0.178 C 
ATOM     16  O   UNL     1      -1.959   1.034  -2.008  1.00  0.00    -0.272 OA
ATOM     17  N   UNL     1      -3.149  -0.032   2.509  1.00  0.00    -0.385 N 
ATOM     18  H   UNL     1      -2.600  -0.478   3.238  1.00  0.00     0.157 HD
ATOM     19  H   UNL     1      -3.615   0.817   2.809  1.00  0.00     0.157 HD
ENDBRANCH   2  11
TORSDOF 2
