REMARK SMILES CN(C)CCCN1c2ccccc2Sc2ccc(Cl)cc21
REMARK SMILES IDX 5 1 4 2 2 3 1 4 3 5 6 6 7 7 8 8 21 9 9 10 13 11 15 12 20 13
REMARK SMILES IDX 10 14 12 15 14 16 16 17 18 18 11 19 17 20 19 21
REMARK H PARENT
REMARK Flexibility Score: inf
ROOT
ATOM      1  C   UNL     1       1.364  -0.107  -0.309  1.00  0.00     0.037 C 
ENDROOT
BRANCH   1   2
ATOM      2  C   UNL     1       2.616  -0.433  -1.133  1.00  0.00     0.085 C 
BRANCH   2   3
ATOM      3  N   UNL     1       3.912  -0.102  -0.527  1.00  0.00    -0.309 NA
ATOM      4  C   UNL     1       4.174  -0.845   0.703  1.00  0.00     0.104 C 
ATOM      5  C   UNL     1       4.095   1.332  -0.320  1.00  0.00     0.104 C 
ENDBRANCH   2   3
ENDBRANCH   1   2
BRANCH   1   6
ATOM      6  C   UNL     1       0.097  -0.499  -1.087  1.00  0.00     0.124 C 
BRANCH   6   7
ATOM      7  N   UNL     1      -1.133  -0.200  -0.317  1.00  0.00    -0.340 N 
ATOM      8  C   UNL     1      -1.661  -1.247   0.495  1.00  0.00     0.055 A 
ATOM      9  C   UNL     1      -1.745   1.071  -0.529  1.00  0.00     0.057 A 
ATOM     10  C   UNL     1      -0.902  -2.387   0.846  1.00  0.00     0.027 A 
ATOM     11  C   UNL     1      -2.970  -1.190   1.018  1.00  0.00     0.036 A 
ATOM     12  C   UNL     1      -3.061   1.340  -0.098  1.00  0.00     0.036 A 
ATOM     13  C   UNL     1      -1.063   2.140  -1.155  1.00  0.00     0.048 A 
ATOM     14  C   UNL     1      -1.408  -3.414   1.653  1.00  0.00     0.002 A 
ATOM     15  C   UNL     1      -3.476  -2.228   1.827  1.00  0.00     0.017 A 
ATOM     16  S   UNL     1      -4.103   0.137   0.689  1.00  0.00    -0.086 SA
ATOM     17  C   UNL     1      -3.652   2.604  -0.302  1.00  0.00     0.019 A 
ATOM     18  C   UNL     1      -1.657   3.392  -1.350  1.00  0.00     0.043 A 
ATOM     19  C   UNL     1      -2.699  -3.336   2.144  1.00  0.00     0.001 A 
ATOM     20  C   UNL     1      -2.952   3.630  -0.927  1.00  0.00     0.022 A 
ATOM     21  Cl  UNL     1      -0.766   4.649  -2.119  1.00  0.00    -0.084 Cl
ENDBRANCH   6   7
ENDBRANCH   1   6
TORSDOF 4
