REMARK SMILES O=C(c1cc(Cc2n[nH]c(=O)c3ccccc23)ccc1F)N1CCN(C(=O)C2CC2)CC1
REMARK SMILES IDX 3 1 4 2 5 3 18 4 19 5 20 6 21 7 2 8 1 9 22 10 23 11 32 12
REMARK SMILES IDX 24 13 31 14 25 15 26 16 27 17 28 18 29 19 30 20 6 21 7 22
REMARK SMILES IDX 8 23 17 24 9 25 12 26 16 27 10 28 13 30 15 31 11 32 14 33
REMARK H PARENT 9 29
REMARK Flexibility Score: inf
ROOT
ATOM      1  C   UNL     1       0.573   1.370   0.461  1.00  0.00     0.076 A 
ATOM      2  C   UNL     1       1.368   0.228   0.610  1.00  0.00     0.021 A 
ATOM      3  C   UNL     1       2.163   0.073   1.757  1.00  0.00    -0.041 A 
ATOM      4  C   UNL     1       2.114   1.063   2.754  1.00  0.00     0.007 A 
ATOM      5  C   UNL     1       1.320   2.203   2.593  1.00  0.00     0.040 A 
ATOM      6  C   UNL     1       0.558   2.356   1.440  1.00  0.00     0.135 A 
ATOM      7  F   UNL     1      -0.210   3.447   1.308  1.00  0.00    -0.206 F 
ENDROOT
BRANCH   1   8
ATOM      8  C   UNL     1      -0.211   1.546  -0.767  1.00  0.00     0.256 C 
ATOM      9  O   UNL     1       0.362   2.034  -1.737  1.00  0.00    -0.269 OA
ATOM     10  N   UNL     1      -1.531   1.112  -0.778  1.00  0.00    -0.335 N 
ATOM     11  C   UNL     1      -2.283   1.220  -2.032  1.00  0.00     0.141 C 
ATOM     12  C   UNL     1      -2.232   0.518   0.367  1.00  0.00     0.141 C 
ATOM     13  C   UNL     1      -3.424   0.201  -2.132  1.00  0.00     0.141 C 
ATOM     14  C   UNL     1      -3.755   0.704   0.293  1.00  0.00     0.141 C 
ATOM     15  N   UNL     1      -4.327   0.250  -0.977  1.00  0.00    -0.339 N 
ATOM     16  C   UNL     1      -5.662  -0.079  -1.161  1.00  0.00     0.225 C 
ATOM     17  O   UNL     1      -6.124  -0.462  -2.229  1.00  0.00    -0.275 OA
BRANCH  16  18
ATOM     18  C   UNL     1      -6.560   0.058   0.022  1.00  0.00     0.079 C 
ATOM     19  C   UNL     1      -6.694  -1.086   1.003  1.00  0.00     0.014 C 
ATOM     20  C   UNL     1      -7.841  -0.743   0.102  1.00  0.00     0.014 C 
ENDBRANCH  16  18
ENDBRANCH   1   8
BRANCH   3  21
ATOM     21  C   UNL     1       3.021  -1.158   1.963  1.00  0.00     0.094 C 
BRANCH  21  22
ATOM     22  C   UNL     1       3.716  -1.653   0.702  1.00  0.00     0.073 C 
ATOM     23  N   UNL     1       3.220  -2.714   0.134  1.00  0.00    -0.177 NA
ATOM     24  C   UNL     1       4.897  -0.928   0.168  1.00  0.00     0.011 A 
ATOM     25  N   UNL     1       3.812  -3.179  -0.998  1.00  0.00    -0.243 N 
ATOM     26  C   UNL     1       5.480  -1.432  -0.994  1.00  0.00     0.050 A 
ATOM     27  C   UNL     1       5.437   0.218   0.765  1.00  0.00     0.011 A 
ATOM     28  C   UNL     1       4.908  -2.635  -1.621  1.00  0.00     0.272 C 
ATOM     29  H   UNL     1       3.406  -4.010  -1.418  1.00  0.00     0.194 HD
ATOM     30  C   UNL     1       6.597  -0.806  -1.562  1.00  0.00     0.014 A 
ATOM     31  C   UNL     1       6.551   0.845   0.197  1.00  0.00     0.001 A 
ATOM     32  O   UNL     1       5.391  -3.119  -2.639  1.00  0.00    -0.267 OA
ATOM     33  C   UNL     1       7.131   0.334  -0.964  1.00  0.00     0.001 A 
ENDBRANCH  21  22
ENDBRANCH   3  21
TORSDOF 4
