REMARK SMILES CC(=O)O[C@H]1Cc2ccccc2N(C(N)=O)c2ccccc21
REMARK SMILES IDX 17 1 18 2 19 3 20 4 21 5 22 6 5 7 4 9 2 10 1 11 3 12 13 13
REMARK SMILES IDX 12 14 7 15 11 16 8 17 10 18 9 19 6 20 14 22 15 23 16 24
REMARK H PARENT 15 25 15 26
REMARK Flexibility Score: 90.00
ROOT
ATOM      1  C   UNL     1      -0.495   1.293  -0.592  1.00  0.00     0.058 A 
ATOM      2  C   UNL     1      -1.259   2.392  -1.020  1.00  0.00     0.027 A 
ATOM      3  C   UNL     1      -0.886   3.129  -2.144  1.00  0.00     0.002 A 
ATOM      4  C   UNL     1       0.261   2.780  -2.850  1.00  0.00     0.001 A 
ATOM      5  C   UNL     1       1.030   1.695  -2.433  1.00  0.00     0.010 A 
ATOM      6  C   UNL     1       0.661   0.944  -1.302  1.00  0.00     0.017 A 
ENDROOT
BRANCH   6   7
ATOM      7  C   UNL     1       1.501  -0.230  -0.869  1.00  0.00     0.213 CG0
ATOM      8  G   UNL     1       0.715  -1.523  -1.097  1.00  0.00     0.000 G0
BRANCH   7   9
ATOM      9  O   UNL     1       1.902  -0.053   0.501  1.00  0.00    -0.457 OA
BRANCH   9  10
ATOM     10  C   UNL     1       2.953  -0.806   0.915  1.00  0.00     0.303 C 
ATOM     11  C   UNL     1       3.209  -0.570   2.372  1.00  0.00     0.139 C 
ATOM     12  O   UNL     1       3.604  -1.565   0.211  1.00  0.00    -0.253 OA
ENDBRANCH   9  10
ENDBRANCH   7   9
ENDBRANCH   6   7
BRANCH   1  13
ATOM     13  N   UNL     1      -0.877   0.588   0.592  1.00  0.00    -0.263 N 
BRANCH  13  14
ATOM     14  C   UNL     1      -1.306  -0.775   0.395  1.00  0.00     0.054 A 
ATOM     15  C   UNL     1      -0.624  -1.716  -0.409  1.00  0.00    -0.020 A 
ATOM     16  C   UNL     1      -2.505  -1.194   1.015  1.00  0.00     0.027 A 
ATOM     17  C   UNL     1      -1.178  -3.010  -0.576  1.00  0.00     0.006 A 
ATOM     18  C   UNL     1      -3.028  -2.478   0.846  1.00  0.00     0.002 A 
ATOM     19  C   UNL     1      -2.365  -3.389   0.044  1.00  0.00     0.000 A 
BRANCH  15  20
ATOM     20  C   UNL     1       0.715  -1.523  -1.097  1.00  0.00     0.088 CG0
ATOM     21  G   UNL     1       1.501  -0.230  -0.869  1.00  0.00     0.000 G0
ENDBRANCH  15  20
ENDBRANCH  13  14
BRANCH  13  22
ATOM     22  C   UNL     1      -1.100   1.257   1.806  1.00  0.00     0.323 C 
ATOM     23  N   UNL     1      -0.640   2.545   1.872  1.00  0.00    -0.351 N 
ATOM     24  O   UNL     1      -1.599   0.796   2.830  1.00  0.00    -0.248 OA
ATOM     25  H   UNL     1      -0.666   2.920   2.811  1.00  0.00     0.161 HD
ATOM     26  H   UNL     1       0.207   2.744   1.358  1.00  0.00     0.161 HD
ENDBRANCH  13  22
ENDBRANCH   1  13
TORSDOF 3
