REMARK SMILES Nc1nnc(-c2cccc(Cl)c2Cl)c(N)n1
REMARK SMILES IDX 2 1 3 2 4 3 5 4 14 5 16 6 1 7 15 10 6 13 7 14 12 15 8 16
REMARK SMILES IDX 10 17 13 18 9 19 11 20
REMARK H PARENT 1 8 1 9 15 11 15 12
REMARK Flexibility Score: inf
ROOT
ATOM      1  C   UNL     1       3.264  -0.370   0.306  1.00  0.00     0.242 A 
ATOM      2  N   UNL     1       2.524  -1.431   0.683  1.00  0.00    -0.111 NA
ATOM      3  N   UNL     1       1.170  -1.383   0.570  1.00  0.00    -0.143 NA
ATOM      4  C   UNL     1       0.600  -0.265   0.074  1.00  0.00     0.137 A 
ATOM      5  C   UNL     1       1.408   0.825  -0.268  1.00  0.00     0.156 A 
ATOM      6  N   UNL     1       2.746   0.772  -0.152  1.00  0.00    -0.193 NA
ENDROOT
BRANCH   1   7
ATOM      7  N   UNL     1       4.639  -0.428   0.441  1.00  0.00    -0.366 N 
ATOM      8  H   UNL     1       4.906  -1.080   1.165  1.00  0.00     0.159 HD
ATOM      9  H   UNL     1       5.014   0.510   0.493  1.00  0.00     0.159 HD
ENDBRANCH   1   7
BRANCH   5  10
ATOM     10  N   UNL     1       0.884   2.035  -0.762  1.00  0.00    -0.382 N 
ATOM     11  H   UNL     1       0.187   2.410  -0.127  1.00  0.00     0.158 HD
ATOM     12  H   UNL     1       0.436   1.865  -1.662  1.00  0.00     0.158 HD
ENDBRANCH   5  10
BRANCH   4  13
ATOM     13  C   UNL     1      -0.867  -0.283   0.012  1.00  0.00     0.026 A 
ATOM     14  C   UNL     1      -1.588  -0.363   1.223  1.00  0.00     0.012 A 
ATOM     15  C   UNL     1      -1.596  -0.244  -1.196  1.00  0.00     0.069 A 
ATOM     16  C   UNL     1      -2.982  -0.382   1.240  1.00  0.00     0.002 A 
ATOM     17  C   UNL     1      -3.002  -0.262  -1.172  1.00  0.00     0.060 A 
ATOM     18  Cl  UNL     1      -0.755  -0.191  -2.718  1.00  0.00    -0.082 Cl
ATOM     19  C   UNL     1      -3.688  -0.327   0.043  1.00  0.00     0.022 A 
ATOM     20  Cl  UNL     1      -3.959  -0.200  -2.613  1.00  0.00    -0.083 Cl
ENDBRANCH   4  13
TORSDOF 3
