REMARK SMILES NS(=O)(=O)c1ccc(N2CCCCS2(=O)=O)cc1
REMARK SMILES IDX 5 1 6 2 7 3 8 4 17 5 18 6 2 7 3 8 4 9 1 10 9 13 10 14 14 15
REMARK SMILES IDX 11 16 13 17 15 18 16 19 12 20
REMARK H PARENT 1 11 1 12
REMARK Flexibility Score: inf
ROOT
ATOM      1  C   UNL     1       3.020   0.180   0.266  1.00  0.00     0.082 A 
ATOM      2  C   UNL     1       2.355  -0.998  -0.087  1.00  0.00     0.024 A 
ATOM      3  C   UNL     1       0.963  -0.995  -0.189  1.00  0.00     0.028 A 
ATOM      4  C   UNL     1       0.246   0.183   0.048  1.00  0.00     0.052 A 
ATOM      5  C   UNL     1       0.919   1.357   0.394  1.00  0.00     0.028 A 
ATOM      6  C   UNL     1       2.310   1.362   0.497  1.00  0.00     0.024 A 
ENDROOT
BRANCH   1   7
ATOM      7  S   UNL     1       4.787   0.188   0.414  1.00  0.00     0.238 S 
ATOM      8  O   UNL     1       5.265   1.505   0.068  1.00  0.00    -0.207 OA
ATOM      9  O   UNL     1       5.304  -1.013  -0.200  1.00  0.00    -0.207 OA
BRANCH   7  10
ATOM     10  N   UNL     1       4.986  -0.024   2.072  1.00  0.00    -0.225 NA
ATOM     11  H   UNL     1       5.449  -0.920   2.238  1.00  0.00     0.137 HD
ATOM     12  H   UNL     1       4.116   0.055   2.597  1.00  0.00     0.137 HD
ENDBRANCH   7  10
ENDBRANCH   1   7
BRANCH   4  13
ATOM     13  N   UNL     1      -1.189   0.220  -0.007  1.00  0.00    -0.270 N 
ATOM     14  C   UNL     1      -1.797  -0.134  -1.314  1.00  0.00     0.135 C 
ATOM     15  S   UNL     1      -1.943  -0.517   1.344  1.00  0.00     0.235 S 
ATOM     16  C   UNL     1      -3.231   0.391  -1.370  1.00  0.00     0.024 C 
ATOM     17  C   UNL     1      -3.603   0.094   1.118  1.00  0.00     0.160 C 
ATOM     18  O   UNL     1      -1.945  -1.951   1.137  1.00  0.00    -0.206 OA
ATOM     19  O   UNL     1      -1.406   0.066   2.555  1.00  0.00    -0.206 OA
ATOM     20  C   UNL     1      -4.122  -0.208  -0.280  1.00  0.00     0.020 C 
ENDBRANCH   4  13
TORSDOF 3
