REMARK SMILES COc1cc2nccc(Oc3ccc(NC(=O)NC4CC4)c(Cl)c3)c2cc1C(N)=O
REMARK SMILES IDX 11 1 12 2 13 3 14 4 22 5 23 6 24 7 10 8 9 9 3 10 4 11 27 12
REMARK SMILES IDX 5 13 26 14 6 15 25 16 7 17 8 18 2 19 1 20 28 21 29 22 30 23
REMARK SMILES IDX 15 26 16 27 17 29 18 30 19 32 20 33 21 34
REMARK H PARENT 29 24 29 25 15 28 18 31
REMARK Flexibility Score: inf
ROOT
ATOM      1  C   UNL     1      -0.033  -0.581   1.519  1.00  0.00     0.129 A 
ATOM      2  C   UNL     1      -0.534  -0.307   0.245  1.00  0.00     0.049 A 
ATOM      3  C   UNL     1      -1.884   0.022   0.075  1.00  0.00     0.031 A 
ATOM      4  C   UNL     1      -2.744   0.099   1.175  1.00  0.00     0.061 A 
ATOM      5  C   UNL     1      -2.219  -0.169   2.453  1.00  0.00     0.068 A 
ATOM      6  Cl  UNL     1      -3.227  -0.097   3.861  1.00  0.00    -0.082 Cl
ATOM      7  C   UNL     1      -0.873  -0.499   2.627  1.00  0.00     0.069 A 
ENDROOT
BRANCH   1   8
ATOM      8  O   UNL     1       1.287  -0.876   1.779  1.00  0.00    -0.457 OA
BRANCH   8   9
ATOM      9  C   UNL     1       1.969  -1.615   0.836  1.00  0.00     0.138 A 
ATOM     10  C   UNL     1       5.381  -0.070  -1.074  1.00  0.00     0.133 A 
ATOM     11  C   UNL     1       4.908  -1.358  -1.346  1.00  0.00     0.076 A 
ATOM     12  C   UNL     1       4.700   0.749  -0.175  1.00  0.00     0.082 A 
ATOM     13  C   UNL     1       3.787  -1.872  -0.710  1.00  0.00     0.078 A 
ATOM     14  C   UNL     1       3.568   0.251   0.478  1.00  0.00     0.032 A 
ATOM     15  N   UNL     1       3.393  -3.123  -1.001  1.00  0.00    -0.256 NA
ATOM     16  C   UNL     1       3.105  -1.058   0.218  1.00  0.00     0.044 A 
ATOM     17  C   UNL     1       2.312  -3.624  -0.364  1.00  0.00     0.115 A 
ATOM     18  C   UNL     1       1.575  -2.920   0.562  1.00  0.00     0.068 A 
BRANCH  10  19
ATOM     19  O   UNL     1       6.449   0.401  -1.791  1.00  0.00    -0.496 OA
ATOM     20  C   UNL     1       7.675  -0.089  -1.244  1.00  0.00     0.278 C 
ENDBRANCH  10  19
BRANCH  12  21
ATOM     21  C   UNL     1       5.172   2.119   0.131  1.00  0.00     0.252 C 
ATOM     22  N   UNL     1       4.211   3.093   0.153  1.00  0.00    -0.365 N 
ATOM     23  O   UNL     1       6.344   2.375   0.366  1.00  0.00    -0.269 OA
ATOM     24  H   UNL     1       3.303   2.952  -0.268  1.00  0.00     0.159 HD
ATOM     25  H   UNL     1       4.547   4.045   0.231  1.00  0.00     0.159 HD
ENDBRANCH  12  21
ENDBRANCH   8   9
ENDBRANCH   1   8
BRANCH   4  26
ATOM     26  N   UNL     1      -4.116   0.422   1.062  1.00  0.00    -0.307 N 
ATOM     27  C   UNL     1      -4.796   0.859  -0.054  1.00  0.00     0.319 C 
ATOM     28  H   UNL     1      -4.619   0.471   1.939  1.00  0.00     0.171 HD
ATOM     29  O   UNL     1      -4.307   1.119  -1.146  1.00  0.00    -0.248 OA
ATOM     30  N   UNL     1      -6.149   0.998   0.216  1.00  0.00    -0.335 N 
ATOM     31  H   UNL     1      -6.513   0.439   0.974  1.00  0.00     0.165 HD
BRANCH  30  32
ATOM     32  C   UNL     1      -7.075   1.397  -0.800  1.00  0.00     0.084 C 
ATOM     33  C   UNL     1      -8.557   1.370  -0.541  1.00  0.00     0.027 C 
ATOM     34  C   UNL     1      -7.943   0.380  -1.487  1.00  0.00     0.027 C 
ENDBRANCH  30  32
ENDBRANCH   4  26
TORSDOF 6
