REMARK SMILES Cc1cc(Br)c(O)c2ncccc12
REMARK SMILES IDX 1 1 2 2 3 3 4 4 5 5 6 6 8 7 9 8 10 9 11 10 12 11 13 12 7 13
REMARK H PARENT 7 14
REMARK Flexibility Score: inf
ROOT
ATOM      1  C   UNL     1      -0.859   2.559   0.129  1.00  0.00     0.045 C 
ATOM      2  C   UNL     1       0.064   1.369   0.105  1.00  0.00    -0.040 A 
ATOM      3  C   UNL     1       1.447   1.587   0.217  1.00  0.00     0.023 A 
ATOM      4  C   UNL     1       2.333   0.513   0.200  1.00  0.00     0.062 A 
ATOM      5  Br  UNL     1       4.189   0.863   0.354  1.00  0.00    -0.047 Br
ATOM      6  C   UNL     1       1.841  -0.783   0.070  1.00  0.00     0.156 A 
ATOM      7  C   UNL     1       0.479  -1.043  -0.044  1.00  0.00     0.113 A 
ATOM      8  N   UNL     1       0.091  -2.332  -0.165  1.00  0.00    -0.252 NA
ATOM      9  C   UNL     1      -1.230  -2.586  -0.276  1.00  0.00     0.112 A 
ATOM     10  C   UNL     1      -2.201  -1.607  -0.271  1.00  0.00     0.021 A 
ATOM     11  C   UNL     1      -1.794  -0.283  -0.145  1.00  0.00     0.012 A 
ATOM     12  C   UNL     1      -0.427   0.041  -0.027  1.00  0.00     0.007 A 
ENDROOT
BRANCH   6  13
ATOM     13  O   UNL     1       2.704  -1.858   0.051  1.00  0.00    -0.505 OA
ATOM     14  H   UNL     1       2.113  -2.635  -0.048  1.00  0.00     0.293 HD
ENDBRANCH   6  13
TORSDOF 1
