REMARK SMILES CC(C)n1cnc(-c2ccc(F)cc2)c1-c1ncc(C(=O)Nc2ccc(N3CCN(C)CC3)cc2)[nH]1
REMARK SMILES IDX 16 1 17 2 18 3 19 4 36 5 15 7 4 8 5 9 6 10 7 11 2 12 1 13
REMARK SMILES IDX 3 14 8 15 9 16 14 17 10 18 13 19 11 20 12 21 20 22 21 23
REMARK SMILES IDX 22 24 23 26 24 27 35 28 25 29 34 30 26 31 27 32 28 33 33 34
REMARK SMILES IDX 29 35 32 36 30 37 31 38
REMARK H PARENT 36 6 22 25
REMARK Flexibility Score: inf
ROOT
ATOM      1  C   UNL     1      -3.969  -0.616   0.882  1.00  0.00     0.156 A 
ATOM      2  N   UNL     1      -3.495  -1.831   0.733  1.00  0.00    -0.234 NA
ATOM      3  C   UNL     1      -2.159  -1.674   0.467  1.00  0.00     0.145 A 
ATOM      4  C   UNL     1      -1.803  -0.340   0.452  1.00  0.00     0.124 A 
ATOM      5  N   UNL     1      -2.983   0.316   0.723  1.00  0.00    -0.333 N 
ATOM      6  H   UNL     1      -3.084   1.320   0.811  1.00  0.00     0.168 HD
ENDROOT
BRANCH   1   7
ATOM      7  C   UNL     1      -5.325  -0.299   1.167  1.00  0.00     0.112 A 
ATOM      8  N   UNL     1      -5.831  -0.048   2.427  1.00  0.00    -0.325 N 
ATOM      9  C   UNL     1      -7.176   0.186   2.286  1.00  0.00     0.201 A 
ATOM     10  N   UNL     1      -7.567   0.071   1.040  1.00  0.00    -0.236 NA
ATOM     11  C   UNL     1      -6.429  -0.238   0.326  1.00  0.00     0.099 A 
BRANCH   8  12
ATOM     12  C   UNL     1      -5.163  -0.051   3.726  1.00  0.00     0.082 C 
ATOM     13  C   UNL     1      -4.224   1.141   3.910  1.00  0.00     0.031 C 
ATOM     14  C   UNL     1      -4.475  -1.376   4.059  1.00  0.00     0.031 C 
ENDBRANCH   8  12
BRANCH  11  15
ATOM     15  C   UNL     1      -6.485  -0.485  -1.109  1.00  0.00     0.003 A 
ATOM     16  C   UNL     1      -7.601  -1.161  -1.634  1.00  0.00     0.013 A 
ATOM     17  C   UNL     1      -5.488  -0.041  -1.990  1.00  0.00     0.013 A 
ATOM     18  C   UNL     1      -7.709  -1.404  -3.005  1.00  0.00     0.040 A 
ATOM     19  C   UNL     1      -5.595  -0.286  -3.362  1.00  0.00     0.040 A 
ATOM     20  C   UNL     1      -6.701  -0.968  -3.855  1.00  0.00     0.123 A 
ATOM     21  F   UNL     1      -6.804  -1.192  -5.171  1.00  0.00    -0.207 F 
ENDBRANCH  11  15
ENDBRANCH   1   7
BRANCH   4  22
ATOM     22  C   UNL     1      -0.554   0.357   0.259  1.00  0.00     0.273 C 
ATOM     23  O   UNL     1      -0.484   1.560   0.482  1.00  0.00    -0.267 OA
ATOM     24  N   UNL     1       0.476  -0.438  -0.202  1.00  0.00    -0.321 N 
ATOM     25  H   UNL     1       0.237  -1.380  -0.477  1.00  0.00     0.170 HD
BRANCH  24  26
ATOM     26  C   UNL     1       1.827  -0.078  -0.386  1.00  0.00     0.041 A 
ATOM     27  C   UNL     1       2.667  -1.026  -0.971  1.00  0.00     0.028 A 
ATOM     28  C   UNL     1       2.374   1.141   0.000  1.00  0.00     0.028 A 
ATOM     29  C   UNL     1       4.029  -0.753  -1.167  1.00  0.00     0.028 A 
ATOM     30  C   UNL     1       3.742   1.400  -0.192  1.00  0.00     0.028 A 
ATOM     31  C   UNL     1       4.608   0.462  -0.775  1.00  0.00     0.037 A 
BRANCH  31  32
ATOM     32  N   UNL     1       5.952   0.729  -0.958  1.00  0.00    -0.369 N 
ATOM     33  C   UNL     1       6.671   1.678  -0.086  1.00  0.00     0.132 C 
ATOM     34  C   UNL     1       6.777  -0.043  -1.901  1.00  0.00     0.132 C 
ATOM     35  C   UNL     1       8.134   1.220   0.126  1.00  0.00     0.105 C 
ATOM     36  C   UNL     1       8.071   0.724  -2.265  1.00  0.00     0.105 C 
ATOM     37  N   UNL     1       8.924   1.117  -1.122  1.00  0.00    -0.303 NA
ATOM     38  C   UNL     1      10.046   0.198  -0.944  1.00  0.00     0.105 C 
ENDBRANCH  31  32
ENDBRANCH  24  26
ENDBRANCH   4  22
TORSDOF 6
