REMARK SMILES NC(=O)O[C@@H](Cn1ncnn1)c1ccccc1Cl
REMARK SMILES IDX 5 1 4 2 2 3 1 4 3 7 6 8 7 9 8 10 11 11 9 12 10 13 12 14
REMARK SMILES IDX 13 15 17 16 14 17 16 18 18 19 15 20
REMARK H PARENT 1 5 1 6
REMARK Flexibility Score: inf
ROOT
ATOM      1  C   UNL     1       0.100   0.661  -1.063  1.00  0.00     0.233 C 
ENDROOT
BRANCH   1   2
ATOM      2  O   UNL     1       0.567   1.804  -0.308  1.00  0.00    -0.439 OA
BRANCH   2   3
ATOM      3  C   UNL     1      -0.150   2.940  -0.430  1.00  0.00     0.405 C 
ATOM      4  N   UNL     1       0.397   3.906   0.338  1.00  0.00    -0.335 N 
ATOM      5  H   UNL     1       1.198   3.701   0.915  1.00  0.00     0.163 HD
ATOM      6  H   UNL     1      -0.049   4.810   0.380  1.00  0.00     0.163 HD
ATOM      7  O   UNL     1      -1.140   3.105  -1.121  1.00  0.00    -0.225 OA
ENDBRANCH   2   3
ENDBRANCH   1   2
BRANCH   1   8
ATOM      8  C   UNL     1       1.322  -0.135  -1.540  1.00  0.00     0.220 C 
BRANCH   8   9
ATOM      9  N   UNL     1       2.054  -0.776  -0.472  1.00  0.00    -0.160 N 
ATOM     10  N   UNL     1       2.034  -2.112  -0.286  1.00  0.00    -0.140 NA
ATOM     11  N   UNL     1       2.882  -0.095   0.343  1.00  0.00    -0.048 NA
ATOM     12  C   UNL     1       2.878  -2.208   0.746  1.00  0.00     0.272 A 
ATOM     13  N   UNL     1       3.401  -1.015   1.145  1.00  0.00    -0.117 NA
ENDBRANCH   8   9
ENDBRANCH   1   8
BRANCH   1  14
ATOM     14  C   UNL     1      -0.888  -0.173  -0.258  1.00  0.00     0.013 A 
ATOM     15  C   UNL     1      -0.835  -0.170   1.150  1.00  0.00     0.009 A 
ATOM     16  C   UNL     1      -1.850  -0.989  -0.879  1.00  0.00     0.048 A 
ATOM     17  C   UNL     1      -1.720  -0.940   1.907  1.00  0.00     0.001 A 
ATOM     18  C   UNL     1      -2.736  -1.759  -0.117  1.00  0.00     0.021 A 
ATOM     19  Cl  UNL     1      -1.986  -1.101  -2.599  1.00  0.00    -0.084 Cl
ATOM     20  C   UNL     1      -2.672  -1.733   1.275  1.00  0.00     0.002 A 
ENDBRANCH   1  14
TORSDOF 5
