REMARK SMILES CC(C)(C)c1nnc([C@H]2O[C@@H](n3cnc4c(Nc5ccc(Cl)cc5F)ncnc43)[C@H](O)[C@@H]2O)o1
REMARK SMILES IDX 12 1 13 2 14 3 15 4 16 5 26 6 27 7 28 8 29 9 11 10 9 11
REMARK SMILES IDX 10 12 32 13 30 14 8 15 5 16 6 17 34 18 7 19 2 20 1 21 3 22
REMARK SMILES IDX 4 23 33 24 31 26 17 28 18 30 19 31 24 32 20 33 23 34 25 35
REMARK SMILES IDX 21 36 22 37
REMARK H PARENT 33 25 31 27 17 29
REMARK Flexibility Score: inf
ROOT
ATOM      1  N   UNL     1      -0.765  -1.680   0.360  1.00  0.00    -0.285 N 
ATOM      2  C   UNL     1      -1.000  -1.590  -0.988  1.00  0.00     0.204 A 
ATOM      3  N   UNL     1      -2.138  -0.981  -1.254  1.00  0.00    -0.231 NA
ATOM      4  C   UNL     1      -2.643  -0.623  -0.020  1.00  0.00     0.150 A 
ATOM      5  C   UNL     1      -3.804   0.085   0.352  1.00  0.00     0.162 A 
ATOM      6  N   UNL     1      -4.020   0.272   1.684  1.00  0.00    -0.217 NA
ATOM      7  C   UNL     1      -3.123  -0.215   2.567  1.00  0.00     0.226 A 
ATOM      8  N   UNL     1      -1.989  -0.894   2.316  1.00  0.00    -0.216 NA
ATOM      9  C   UNL     1      -1.811  -1.060   0.995  1.00  0.00     0.167 A 
ENDROOT
BRANCH   1  10
ATOM     10  C   UNL     1       0.367  -2.277   1.037  1.00  0.00     0.254 C 
ATOM     11  C   UNL     1       2.658  -1.876   1.249  1.00  0.00     0.240 C 
ATOM     12  O   UNL     1       1.353  -1.250   1.261  1.00  0.00    -0.339 OA
ATOM     13  C   UNL     1       2.441  -3.373   1.022  1.00  0.00     0.186 C 
ATOM     14  C   UNL     1       1.101  -3.406   0.305  1.00  0.00     0.196 C 
BRANCH  11  15
ATOM     15  C   UNL     1       3.428  -1.240   0.151  1.00  0.00     0.248 A 
ATOM     16  C   UNL     1       4.597   0.267  -0.792  1.00  0.00     0.222 A 
ATOM     17  N   UNL     1       4.348  -0.646  -1.708  1.00  0.00    -0.112 NA
ATOM     18  O   UNL     1       4.051  -0.052   0.426  1.00  0.00    -0.422 OA
ATOM     19  N   UNL     1       3.582  -1.621  -1.101  1.00  0.00    -0.110 NA
BRANCH  16  20
ATOM     20  C   UNL     1       5.288   1.594  -0.913  1.00  0.00     0.040 C 
ATOM     21  C   UNL     1       6.093   1.660  -2.223  1.00  0.00     0.021 C 
ATOM     22  C   UNL     1       4.224   2.706  -0.923  1.00  0.00     0.021 C 
ATOM     23  C   UNL     1       6.251   1.814   0.267  1.00  0.00     0.021 C 
ENDBRANCH  16  20
ENDBRANCH  11  15
BRANCH  13  24
ATOM     24  O   UNL     1       2.329  -4.055   2.283  1.00  0.00    -0.387 OA
ATOM     25  H   UNL     1       1.741  -4.826   2.136  1.00  0.00     0.211 HD
ENDBRANCH  13  24
BRANCH  14  26
ATOM     26  O   UNL     1       0.479  -4.681   0.440  1.00  0.00    -0.386 OA
ATOM     27  H   UNL     1       0.893  -5.283  -0.206  1.00  0.00     0.211 HD
ENDBRANCH  14  26
ENDBRANCH   1  10
BRANCH   5  28
ATOM     28  N   UNL     1      -4.683   0.552  -0.635  1.00  0.00    -0.336 N 
ATOM     29  H   UNL     1      -4.380   0.289  -1.572  1.00  0.00     0.168 HD
BRANCH  28  30
ATOM     30  C   UNL     1      -5.806   1.392  -0.602  1.00  0.00     0.076 A 
ATOM     31  C   UNL     1      -6.298   1.995   0.560  1.00  0.00     0.031 A 
ATOM     32  C   UNL     1      -6.508   1.629  -1.797  1.00  0.00     0.148 A 
ATOM     33  C   UNL     1      -7.435   2.814   0.523  1.00  0.00     0.023 A 
ATOM     34  C   UNL     1      -7.638   2.439  -1.852  1.00  0.00     0.062 A 
ATOM     35  F   UNL     1      -6.070   1.063  -2.936  1.00  0.00    -0.205 F 
ATOM     36  C   UNL     1      -8.097   3.032  -0.683  1.00  0.00     0.044 A 
ATOM     37  Cl  UNL     1      -9.487   4.043  -0.723  1.00  0.00    -0.084 Cl
ENDBRANCH  28  30
ENDBRANCH   5  28
TORSDOF 7
