REMARK SMILES N#Cc1cc(Cl)cc(Oc2c(Cl)ccc3c2cnn3Cc2n[nH]c3ncccc23)c1
REMARK SMILES IDX 10 1 16 2 17 3 18 4 19 5 15 6 14 7 13 8 11 9 12 10 9 11 8 12
REMARK SMILES IDX 6 13 5 14 7 15 4 16 3 17 30 18 2 19 1 20 20 21 21 22 22 23
REMARK SMILES IDX 29 24 23 25 24 26 28 27 25 29 27 30 26 31
REMARK H PARENT 23 28
REMARK Flexibility Score: inf
ROOT
ATOM      1  C   UNL     1      -0.982   1.355   1.400  1.00  0.00     0.157 A 
ATOM      2  C   UNL     1      -0.573   0.322   0.527  1.00  0.00     0.064 A 
ATOM      3  C   UNL     1      -0.925  -0.117  -0.768  1.00  0.00     0.147 A 
ATOM      4  N   UNL     1      -0.227  -1.182  -1.166  1.00  0.00    -0.180 NA
ATOM      5  N   UNL     1       0.605  -1.422  -0.126  1.00  0.00    -0.259 N 
ATOM      6  C   UNL     1       0.438  -0.550   0.927  1.00  0.00     0.073 A 
ATOM      7  C   UNL     1       1.082  -0.437   2.167  1.00  0.00     0.030 A 
ATOM      8  C   UNL     1       0.686   0.609   3.008  1.00  0.00     0.027 A 
ATOM      9  C   UNL     1      -0.322   1.498   2.630  1.00  0.00     0.084 A 
ATOM     10  Cl  UNL     1      -0.750   2.758   3.729  1.00  0.00    -0.080 Cl
ENDROOT
BRANCH   1  11
ATOM     11  O   UNL     1      -1.957   2.273   1.045  1.00  0.00    -0.455 OA
BRANCH  11  12
ATOM     12  C   UNL     1      -3.220   1.767   0.829  1.00  0.00     0.130 A 
ATOM     13  Cl  UNL     1      -5.869  -0.740   2.450  1.00  0.00    -0.084 Cl
ATOM     14  C   UNL     1      -5.116   0.398   1.402  1.00  0.00     0.046 A 
ATOM     15  C   UNL     1      -3.827   0.847   1.685  1.00  0.00     0.067 A 
ATOM     16  C   UNL     1      -5.804   0.863   0.281  1.00  0.00     0.040 A 
ATOM     17  C   UNL     1      -5.203   1.806  -0.558  1.00  0.00     0.057 A 
ATOM     18  C   UNL     1      -3.912   2.265  -0.277  1.00  0.00     0.066 A 
BRANCH  17  19
ATOM     19  C   UNL     1      -5.907   2.298  -1.706  1.00  0.00     0.099 C 
ATOM     20  N   UNL     1      -6.472   2.690  -2.641  1.00  0.00    -0.192 NA
ENDBRANCH  17  19
ENDBRANCH  11  12
ENDBRANCH   1  11
BRANCH   5  21
ATOM     21  C   UNL     1       1.526  -2.551  -0.198  1.00  0.00     0.203 C 
BRANCH  21  22
ATOM     22  C   UNL     1       2.935  -2.087  -0.331  1.00  0.00     0.093 A 
ATOM     23  N   UNL     1       3.842  -2.384   0.619  1.00  0.00    -0.176 NA
ATOM     24  C   UNL     1       3.511  -1.344  -1.400  1.00  0.00     0.044 A 
ATOM     25  N   UNL     1       4.985  -1.836   0.149  1.00  0.00    -0.260 N 
ATOM     26  C   UNL     1       4.843  -1.198  -1.047  1.00  0.00     0.155 A 
ATOM     27  C   UNL     1       3.095  -0.781  -2.615  1.00  0.00     0.015 A 
ATOM     28  H   UNL     1       5.840  -1.928   0.683  1.00  0.00     0.192 HD
ATOM     29  N   UNL     1       5.814  -0.568  -1.735  1.00  0.00    -0.237 NA
ATOM     30  C   UNL     1       4.060  -0.117  -3.374  1.00  0.00     0.021 A 
ATOM     31  C   UNL     1       5.365  -0.043  -2.899  1.00  0.00     0.113 A 
ENDBRANCH  21  22
ENDBRANCH   5  21
TORSDOF 5
