REMARK SMILES CC1OC2(CS1)CN1CCC2CC1
REMARK SMILES IDX 1 1 2 2 3 3 4 4 5 5 6 6 7 7 8 8 9 9 10 10 11 11 12 12 13 13
REMARK H PARENT
REMARK Flexibility Score: inf
ROOT
ATOM      1  C   UNL     1       3.590   1.111   0.972  1.00  0.00     0.051 C 
ATOM      2  C   UNL     1       2.461   0.098   0.902  1.00  0.00     0.173 C 
ATOM      3  O   UNL     1       1.251   0.788   0.563  1.00  0.00    -0.359 OA
ATOM      4  C   UNL     1       0.391  -0.080  -0.211  1.00  0.00     0.094 C 
ATOM      5  C   UNL     1       1.288  -0.767  -1.250  1.00  0.00     0.109 C 
ATOM      6  S   UNL     1       2.795  -1.165  -0.347  1.00  0.00    -0.128 SA
ATOM      7  C   UNL     1      -0.354  -1.101   0.712  1.00  0.00     0.121 C 
ATOM      8  N   UNL     1      -1.824  -0.871   0.743  1.00  0.00    -0.300 NA
ATOM      9  C   UNL     1      -2.071   0.516   1.194  1.00  0.00     0.085 C 
ATOM     10  C   UNL     1      -1.477   1.547   0.223  1.00  0.00     0.022 C 
ATOM     11  C   UNL     1      -0.689   0.813  -0.881  1.00  0.00     0.026 C 
ATOM     12  C   UNL     1      -1.699  -0.078  -1.624  1.00  0.00     0.022 C 
ATOM     13  C   UNL     1      -2.363  -1.038  -0.623  1.00  0.00     0.085 C 
ENDROOT
TORSDOF 0
